Version 4
SHEET 1 34328 680
WIRE 22288 -8480 19936 -8480
WIRE 23136 -8480 22288 -8480
WIRE 23984 -8480 23136 -8480
WIRE 24832 -8480 23984 -8480
WIRE 27760 -8480 24832 -8480
WIRE 22272 -8432 19984 -8432
WIRE 23120 -8432 22272 -8432
WIRE 23968 -8432 23120 -8432
WIRE 24816 -8432 23968 -8432
WIRE 27712 -8432 24816 -8432
WIRE 22368 -8384 20032 -8384
WIRE 23216 -8384 22368 -8384
WIRE 24064 -8384 23216 -8384
WIRE 24912 -8384 24064 -8384
WIRE 27664 -8384 24912 -8384
WIRE 22336 -8336 20080 -8336
WIRE 23184 -8336 22336 -8336
WIRE 24032 -8336 23184 -8336
WIRE 24880 -8336 24032 -8336
WIRE 27616 -8336 24880 -8336
WIRE 22304 -8288 20128 -8288
WIRE 23152 -8288 22304 -8288
WIRE 24000 -8288 23152 -8288
WIRE 24848 -8288 24000 -8288
WIRE 27568 -8288 24848 -8288
WIRE 25536 -8240 22144 -8240
WIRE 22432 -8192 20224 -8192
WIRE 23280 -8192 22432 -8192
WIRE 24128 -8192 23280 -8192
WIRE 24976 -8192 24128 -8192
WIRE 27520 -8192 24976 -8192
WIRE 22400 -8144 20272 -8144
WIRE 23248 -8144 22400 -8144
WIRE 24096 -8144 23248 -8144
WIRE 24944 -8144 24096 -8144
WIRE 27472 -8144 24944 -8144
WIRE 22352 -7984 20176 -7984
WIRE 23200 -7984 22736 -7984
WIRE 24048 -7984 23584 -7984
WIRE 24896 -7984 24432 -7984
WIRE 25536 -7984 25280 -7984
WIRE 22432 -7920 22432 -8192
WIRE 23280 -7920 23280 -8192
WIRE 24128 -7920 24128 -8192
WIRE 24976 -7920 24976 -8192
WIRE 22400 -7888 22400 -8144
WIRE 22432 -7888 22400 -7888
WIRE 23248 -7888 23248 -8144
WIRE 23280 -7888 23248 -7888
WIRE 24096 -7888 24096 -8144
WIRE 24128 -7888 24096 -7888
WIRE 24944 -7888 24944 -8144
WIRE 24976 -7888 24944 -7888
WIRE 22352 -7808 22352 -7984
WIRE 22432 -7808 22432 -7824
WIRE 22432 -7808 22352 -7808
WIRE 23200 -7808 23200 -7984
WIRE 23280 -7808 23280 -7824
WIRE 23280 -7808 23200 -7808
WIRE 24048 -7808 24048 -7984
WIRE 24128 -7808 24128 -7824
WIRE 24128 -7808 24048 -7808
WIRE 24896 -7808 24896 -7984
WIRE 24976 -7808 24976 -7824
WIRE 24976 -7808 24896 -7808
WIRE 22432 -7792 22432 -7808
WIRE 23280 -7792 23280 -7808
WIRE 24128 -7792 24128 -7808
WIRE 24976 -7792 24976 -7808
WIRE 22736 -7728 22736 -7984
WIRE 22736 -7728 22656 -7728
WIRE 23584 -7728 23584 -7984
WIRE 23584 -7728 23504 -7728
WIRE 24432 -7728 24432 -7984
WIRE 24432 -7728 24352 -7728
WIRE 25280 -7728 25280 -7984
WIRE 25280 -7728 25200 -7728
WIRE 22304 -7296 22304 -8288
WIRE 22464 -7296 22304 -7296
WIRE 23152 -7296 23152 -8288
WIRE 23312 -7296 23152 -7296
WIRE 24000 -7296 24000 -8288
WIRE 24160 -7296 24000 -7296
WIRE 24848 -7296 24848 -8288
WIRE 25008 -7296 24848 -7296
WIRE 22336 -7264 22336 -8336
WIRE 22464 -7264 22336 -7264
WIRE 23184 -7264 23184 -8336
WIRE 23312 -7264 23184 -7264
WIRE 24032 -7264 24032 -8336
WIRE 24160 -7264 24032 -7264
WIRE 24880 -7264 24880 -8336
WIRE 25008 -7264 24880 -7264
WIRE 22368 -7232 22368 -8384
WIRE 22464 -7232 22368 -7232
WIRE 23216 -7232 23216 -8384
WIRE 23312 -7232 23216 -7232
WIRE 24064 -7232 24064 -8384
WIRE 24160 -7232 24064 -7232
WIRE 24912 -7232 24912 -8384
WIRE 25008 -7232 24912 -7232
WIRE 22288 -7120 22288 -8480
WIRE 22464 -7120 22464 -7136
WIRE 22464 -7120 22288 -7120
WIRE 23136 -7120 23136 -8480
WIRE 23312 -7120 23312 -7136
WIRE 23312 -7120 23136 -7120
WIRE 23984 -7120 23984 -8480
WIRE 24160 -7120 24160 -7136
WIRE 24160 -7120 23984 -7120
WIRE 24832 -7120 24832 -8480
WIRE 25008 -7120 25008 -7136
WIRE 25008 -7120 24832 -7120
WIRE 22464 -7104 22464 -7120
WIRE 23312 -7104 23312 -7120
WIRE 24160 -7104 24160 -7120
WIRE 25008 -7104 25008 -7120
WIRE 22272 -7072 22272 -8432
WIRE 22464 -7072 22272 -7072
WIRE 23120 -7072 23120 -8432
WIRE 23312 -7072 23120 -7072
WIRE 23968 -7072 23968 -8432
WIRE 24160 -7072 23968 -7072
WIRE 24816 -7072 24816 -8432
WIRE 25008 -7072 24816 -7072
WIRE 27424 -6368 26576 -6368
WIRE 26576 -6112 26576 -6368
WIRE 26576 -6112 26144 -6112
WIRE 26656 -6112 26576 -6112
WIRE 26624 -6096 26160 -6096
WIRE 26592 -6080 26176 -6080
WIRE 27280 -6048 27280 -6272
WIRE 27280 -6048 26032 -6048
WIRE 27232 -6032 27232 -6272
WIRE 27232 -6032 26000 -6032
WIRE 20432 -6016 20432 -6272
WIRE 20688 -6016 20432 -6016
WIRE 27184 -6016 27184 -6272
WIRE 27184 -6016 25968 -6016
WIRE 27136 -6000 27136 -6272
WIRE 27136 -6000 25936 -6000
WIRE 27088 -5984 27088 -6272
WIRE 27088 -5984 25904 -5984
WIRE 27040 -5968 27040 -6272
WIRE 27040 -5968 25872 -5968
WIRE 26992 -5952 26992 -6272
WIRE 26992 -5952 25840 -5952
WIRE 20688 -5936 20688 -6016
WIRE 26944 -5936 26944 -6272
WIRE 26944 -5936 25808 -5936
WIRE 25808 -5920 25808 -5936
WIRE 25840 -5920 25840 -5952
WIRE 25872 -5920 25872 -5968
WIRE 25904 -5920 25904 -5984
WIRE 25936 -5920 25936 -6000
WIRE 25968 -5920 25968 -6016
WIRE 26000 -5920 26000 -6032
WIRE 26032 -5920 26032 -6048
WIRE 26592 -5920 26592 -6080
WIRE 26624 -5920 26624 -6096
WIRE 26656 -5920 26656 -6112
WIRE 26144 -5792 26144 -6112
WIRE 26144 -5792 26064 -5792
WIRE 26160 -5776 26160 -6096
WIRE 26160 -5776 26064 -5776
WIRE 26176 -5760 26176 -6080
WIRE 26176 -5760 26064 -5760
WIRE 21296 -5744 21280 -5744
WIRE 21312 -5744 21296 -5744
WIRE 20224 -5712 20224 -8192
WIRE 20496 -5712 20224 -5712
WIRE 20608 -5712 20592 -5712
WIRE 20624 -5712 20608 -5712
WIRE 20272 -5680 20272 -8144
WIRE 20528 -5680 20528 -5712
WIRE 20528 -5680 20272 -5680
WIRE 26560 -5664 26560 -5696
WIRE 26576 -5664 26560 -5664
WIRE 26592 -5664 26592 -5696
WIRE 26592 -5664 26576 -5664
WIRE 20032 -5648 20032 -8384
WIRE 21184 -5648 21184 -5744
WIRE 21184 -5648 20032 -5648
WIRE 26496 -5648 26496 -5696
WIRE 27472 -5648 27472 -8144
WIRE 27472 -5648 26496 -5648
WIRE 20608 -5632 20608 -5712
WIRE 20608 -5632 20432 -5632
WIRE 26464 -5632 26464 -5696
WIRE 27520 -5632 27520 -8192
WIRE 27520 -5632 26464 -5632
WIRE 20080 -5616 20080 -8336
WIRE 21152 -5616 21152 -5744
WIRE 21152 -5616 20080 -5616
WIRE 20128 -5584 20128 -8288
WIRE 21120 -5584 21120 -5744
WIRE 21120 -5584 20128 -5584
WIRE 19936 -5568 19936 -8480
WIRE 21296 -5568 21296 -5744
WIRE 21296 -5568 19936 -5568
WIRE 19984 -5552 19984 -8432
WIRE 21344 -5552 21344 -5744
WIRE 21344 -5552 19984 -5552
WIRE 26576 -5264 26576 -5664
WIRE 26576 -5264 26160 -5264
WIRE 26656 -5264 26576 -5264
WIRE 26624 -5248 26176 -5248
WIRE 26592 -5232 26192 -5232
WIRE 27280 -5200 27280 -6048
WIRE 27280 -5200 26032 -5200
WIRE 27232 -5184 27232 -6032
WIRE 27232 -5184 26000 -5184
WIRE 20432 -5168 20432 -5632
WIRE 20688 -5168 20432 -5168
WIRE 27184 -5168 27184 -6016
WIRE 27184 -5168 25968 -5168
WIRE 27136 -5152 27136 -6000
WIRE 27136 -5152 25936 -5152
WIRE 27088 -5136 27088 -5984
WIRE 27088 -5136 25904 -5136
WIRE 27040 -5120 27040 -5968
WIRE 27040 -5120 25872 -5120
WIRE 26992 -5104 26992 -5952
WIRE 26992 -5104 25840 -5104
WIRE 20688 -5088 20688 -5168
WIRE 26944 -5088 26944 -5936
WIRE 26944 -5088 25808 -5088
WIRE 25808 -5072 25808 -5088
WIRE 25840 -5072 25840 -5104
WIRE 25872 -5072 25872 -5120
WIRE 25904 -5072 25904 -5136
WIRE 25936 -5072 25936 -5152
WIRE 25968 -5072 25968 -5168
WIRE 26000 -5072 26000 -5184
WIRE 26032 -5072 26032 -5200
WIRE 26592 -5072 26592 -5232
WIRE 26624 -5072 26624 -5248
WIRE 26656 -5072 26656 -5264
WIRE 26160 -4944 26160 -5264
WIRE 26160 -4944 26064 -4944
WIRE 26176 -4928 26176 -5248
WIRE 26176 -4928 26064 -4928
WIRE 26192 -4912 26192 -5232
WIRE 26192 -4912 26064 -4912
WIRE 21296 -4896 21280 -4896
WIRE 21312 -4896 21296 -4896
WIRE 20224 -4864 20224 -5712
WIRE 20496 -4864 20224 -4864
WIRE 20608 -4864 20592 -4864
WIRE 20624 -4864 20608 -4864
WIRE 20272 -4832 20272 -5680
WIRE 20528 -4832 20528 -4864
WIRE 20528 -4832 20272 -4832
WIRE 26560 -4816 26560 -4848
WIRE 26576 -4816 26560 -4816
WIRE 26592 -4816 26592 -4848
WIRE 26592 -4816 26576 -4816
WIRE 20032 -4800 20032 -5648
WIRE 21184 -4800 21184 -4896
WIRE 21184 -4800 20032 -4800
WIRE 26496 -4800 26496 -4848
WIRE 27472 -4800 27472 -5648
WIRE 27472 -4800 26496 -4800
WIRE 20608 -4784 20608 -4864
WIRE 20608 -4784 20432 -4784
WIRE 26464 -4784 26464 -4848
WIRE 27520 -4784 27520 -5632
WIRE 27520 -4784 26464 -4784
WIRE 20080 -4768 20080 -5616
WIRE 21152 -4768 21152 -4896
WIRE 21152 -4768 20080 -4768
WIRE 20128 -4736 20128 -5584
WIRE 21120 -4736 21120 -4896
WIRE 21120 -4736 20128 -4736
WIRE 19936 -4720 19936 -5568
WIRE 21296 -4720 21296 -4896
WIRE 21296 -4720 19936 -4720
WIRE 19984 -4704 19984 -5552
WIRE 21344 -4704 21344 -4896
WIRE 21344 -4704 19984 -4704
WIRE 26576 -4416 26576 -4816
WIRE 26576 -4416 26176 -4416
WIRE 26656 -4416 26576 -4416
WIRE 26624 -4400 26192 -4400
WIRE 26592 -4384 26208 -4384
WIRE 27280 -4352 27280 -5200
WIRE 27280 -4352 26032 -4352
WIRE 27232 -4336 27232 -5184
WIRE 27232 -4336 26000 -4336
WIRE 20432 -4320 20432 -4784
WIRE 20688 -4320 20432 -4320
WIRE 27184 -4320 27184 -5168
WIRE 27184 -4320 25968 -4320
WIRE 27136 -4304 27136 -5152
WIRE 27136 -4304 25936 -4304
WIRE 27088 -4288 27088 -5136
WIRE 27088 -4288 25904 -4288
WIRE 27040 -4272 27040 -5120
WIRE 27040 -4272 25872 -4272
WIRE 26992 -4256 26992 -5104
WIRE 26992 -4256 25840 -4256
WIRE 20688 -4240 20688 -4320
WIRE 26944 -4240 26944 -5088
WIRE 26944 -4240 25808 -4240
WIRE 25808 -4224 25808 -4240
WIRE 25840 -4224 25840 -4256
WIRE 25872 -4224 25872 -4272
WIRE 25904 -4224 25904 -4288
WIRE 25936 -4224 25936 -4304
WIRE 25968 -4224 25968 -4320
WIRE 26000 -4224 26000 -4336
WIRE 26032 -4224 26032 -4352
WIRE 26592 -4224 26592 -4384
WIRE 26624 -4224 26624 -4400
WIRE 26656 -4224 26656 -4416
WIRE 26176 -4096 26176 -4416
WIRE 26176 -4096 26064 -4096
WIRE 26192 -4080 26192 -4400
WIRE 26192 -4080 26064 -4080
WIRE 26208 -4064 26208 -4384
WIRE 26208 -4064 26064 -4064
WIRE 21296 -4048 21280 -4048
WIRE 21312 -4048 21296 -4048
WIRE 20224 -4016 20224 -4864
WIRE 20496 -4016 20224 -4016
WIRE 20608 -4016 20592 -4016
WIRE 20624 -4016 20608 -4016
WIRE 20272 -3984 20272 -4832
WIRE 20528 -3984 20528 -4016
WIRE 20528 -3984 20272 -3984
WIRE 26560 -3968 26560 -4000
WIRE 26576 -3968 26560 -3968
WIRE 26592 -3968 26592 -4000
WIRE 26592 -3968 26576 -3968
WIRE 20032 -3952 20032 -4800
WIRE 21184 -3952 21184 -4048
WIRE 21184 -3952 20032 -3952
WIRE 26496 -3952 26496 -4000
WIRE 27472 -3952 27472 -4800
WIRE 27472 -3952 26496 -3952
WIRE 20608 -3936 20608 -4016
WIRE 20608 -3936 20432 -3936
WIRE 26464 -3936 26464 -4000
WIRE 27520 -3936 27520 -4784
WIRE 27520 -3936 26464 -3936
WIRE 20080 -3920 20080 -4768
WIRE 21152 -3920 21152 -4048
WIRE 21152 -3920 20080 -3920
WIRE 20128 -3888 20128 -4736
WIRE 21120 -3888 21120 -4048
WIRE 21120 -3888 20128 -3888
WIRE 19936 -3872 19936 -4720
WIRE 21296 -3872 21296 -4048
WIRE 21296 -3872 19936 -3872
WIRE 19984 -3856 19984 -4704
WIRE 21344 -3856 21344 -4048
WIRE 21344 -3856 19984 -3856
WIRE 27328 -3728 27328 -6272
WIRE 27376 -3728 27376 -6272
WIRE 22656 -3456 22640 -3456
WIRE 23504 -3456 23488 -3456
WIRE 24352 -3456 24336 -3456
WIRE 25200 -3456 25184 -3456
WIRE 22672 -3424 22640 -3424
WIRE 23520 -3424 23488 -3424
WIRE 24368 -3424 24336 -3424
WIRE 25216 -3424 25184 -3424
WIRE 22688 -3392 22640 -3392
WIRE 23536 -3392 23488 -3392
WIRE 24384 -3392 24336 -3392
WIRE 25232 -3392 25184 -3392
WIRE 22704 -3360 22640 -3360
WIRE 23552 -3360 23488 -3360
WIRE 24400 -3360 24336 -3360
WIRE 25248 -3360 25184 -3360
WIRE 22720 -3328 22640 -3328
WIRE 23568 -3328 23488 -3328
WIRE 24416 -3328 24336 -3328
WIRE 25264 -3328 25184 -3328
WIRE 22736 -3296 22640 -3296
WIRE 23584 -3296 23488 -3296
WIRE 24432 -3296 24336 -3296
WIRE 25280 -3296 25184 -3296
WIRE 22752 -3264 22640 -3264
WIRE 23600 -3264 23488 -3264
WIRE 24448 -3264 24336 -3264
WIRE 25296 -3264 25184 -3264
WIRE 22768 -3232 22640 -3232
WIRE 23616 -3232 23488 -3232
WIRE 24464 -3232 24336 -3232
WIRE 25312 -3232 25184 -3232
WIRE 22528 -3040 22528 -3200
WIRE 22832 -3040 22528 -3040
WIRE 23376 -3040 23376 -3200
WIRE 23680 -3040 23376 -3040
WIRE 24224 -3040 24224 -3200
WIRE 24528 -3040 24224 -3040
WIRE 25072 -3040 25072 -3200
WIRE 25376 -3040 25072 -3040
WIRE 22512 -3024 22512 -3200
WIRE 22816 -3024 22512 -3024
WIRE 23360 -3024 23360 -3200
WIRE 23664 -3024 23360 -3024
WIRE 24208 -3024 24208 -3200
WIRE 24512 -3024 24208 -3024
WIRE 25056 -3024 25056 -3200
WIRE 25360 -3024 25056 -3024
WIRE 22496 -3008 22496 -3200
WIRE 22800 -3008 22496 -3008
WIRE 23344 -3008 23344 -3200
WIRE 23648 -3008 23344 -3008
WIRE 24192 -3008 24192 -3200
WIRE 24496 -3008 24192 -3008
WIRE 25040 -3008 25040 -3200
WIRE 25344 -3008 25040 -3008
WIRE 22416 -2800 22352 -2800
WIRE 23264 -2800 23200 -2800
WIRE 24112 -2800 24048 -2800
WIRE 24960 -2800 24896 -2800
WIRE 22416 -2768 22368 -2768
WIRE 23264 -2768 23216 -2768
WIRE 24112 -2768 24064 -2768
WIRE 24960 -2768 24912 -2768
WIRE 22416 -2704 22384 -2704
WIRE 23264 -2704 23232 -2704
WIRE 24112 -2704 24080 -2704
WIRE 24960 -2704 24928 -2704
WIRE 22384 -2688 22384 -2704
WIRE 22384 -2688 21984 -2688
WIRE 22832 -2688 22832 -3040
WIRE 23232 -2688 23232 -2704
WIRE 23232 -2688 22832 -2688
WIRE 23680 -2688 23680 -3040
WIRE 24080 -2688 24080 -2704
WIRE 24080 -2688 23680 -2688
WIRE 24528 -2688 24528 -3040
WIRE 24928 -2688 24928 -2704
WIRE 24928 -2688 24528 -2688
WIRE 25376 -2688 25376 -3040
WIRE 26512 -2688 25376 -2688
WIRE 22384 -2672 22384 -2688
WIRE 22416 -2672 22384 -2672
WIRE 22800 -2672 22800 -3008
WIRE 22800 -2672 22640 -2672
WIRE 23232 -2672 23232 -2688
WIRE 23264 -2672 23232 -2672
WIRE 23648 -2672 23648 -3008
WIRE 23648 -2672 23488 -2672
WIRE 24080 -2672 24080 -2688
WIRE 24112 -2672 24080 -2672
WIRE 24928 -2672 24928 -2688
WIRE 24960 -2672 24928 -2672
WIRE 25344 -2672 25344 -3008
WIRE 25344 -2672 25184 -2672
WIRE 24496 -2656 24496 -3008
WIRE 24496 -2656 24336 -2656
WIRE 22816 -2640 22816 -3024
WIRE 22816 -2640 22640 -2640
WIRE 23664 -2640 23664 -3024
WIRE 23664 -2640 23488 -2640
WIRE 24512 -2640 24512 -3024
WIRE 24512 -2640 24336 -2640
WIRE 25360 -2640 25360 -3024
WIRE 25360 -2640 25184 -2640
WIRE 22832 -2608 22832 -2688
WIRE 22832 -2608 22640 -2608
WIRE 23680 -2608 23680 -2688
WIRE 23680 -2608 23488 -2608
WIRE 24528 -2608 24528 -2688
WIRE 24528 -2608 24336 -2608
WIRE 25376 -2608 25376 -2688
WIRE 25376 -2608 25184 -2608
WIRE 22656 -2320 22656 -3456
WIRE 22656 -2320 22144 -2320
WIRE 23504 -2320 23504 -3456
WIRE 23504 -2320 22656 -2320
WIRE 24352 -2320 24352 -3456
WIRE 24352 -2320 23504 -2320
WIRE 25200 -2320 25200 -3456
WIRE 25200 -2320 24352 -2320
WIRE 26944 -2320 26944 -4240
WIRE 26944 -2320 25200 -2320
WIRE 28048 -2320 26944 -2320
WIRE 22672 -2272 22672 -3424
WIRE 22672 -2272 22144 -2272
WIRE 23520 -2272 23520 -3424
WIRE 23520 -2272 22672 -2272
WIRE 24368 -2272 24368 -3424
WIRE 24368 -2272 23520 -2272
WIRE 25216 -2272 25216 -3424
WIRE 25216 -2272 24368 -2272
WIRE 26992 -2272 26992 -4256
WIRE 26992 -2272 25216 -2272
WIRE 28048 -2272 26992 -2272
WIRE 22688 -2224 22688 -3392
WIRE 22688 -2224 22144 -2224
WIRE 23536 -2224 23536 -3392
WIRE 23536 -2224 22688 -2224
WIRE 24384 -2224 24384 -3392
WIRE 24384 -2224 23536 -2224
WIRE 25232 -2224 25232 -3392
WIRE 25232 -2224 24384 -2224
WIRE 27040 -2224 27040 -4272
WIRE 27040 -2224 25232 -2224
WIRE 28048 -2224 27040 -2224
WIRE 22704 -2176 22704 -3360
WIRE 22704 -2176 22144 -2176
WIRE 23552 -2176 23552 -3360
WIRE 23552 -2176 22704 -2176
WIRE 24400 -2176 24400 -3360
WIRE 24400 -2176 23552 -2176
WIRE 25248 -2176 25248 -3360
WIRE 25248 -2176 24400 -2176
WIRE 27088 -2176 27088 -4288
WIRE 27088 -2176 25248 -2176
WIRE 28048 -2176 27088 -2176
WIRE 22720 -2128 22720 -3328
WIRE 22720 -2128 22144 -2128
WIRE 23568 -2128 23568 -3328
WIRE 23568 -2128 22720 -2128
WIRE 24416 -2128 24416 -3328
WIRE 24416 -2128 23568 -2128
WIRE 25264 -2128 25264 -3328
WIRE 25264 -2128 24416 -2128
WIRE 27136 -2128 27136 -4304
WIRE 27136 -2128 25264 -2128
WIRE 28048 -2128 27136 -2128
WIRE 22736 -2080 22736 -3296
WIRE 22736 -2080 22144 -2080
WIRE 23584 -2080 23584 -3296
WIRE 23584 -2080 22736 -2080
WIRE 24432 -2080 24432 -3296
WIRE 24432 -2080 23584 -2080
WIRE 25280 -2080 25280 -3296
WIRE 25280 -2080 24432 -2080
WIRE 27184 -2080 27184 -4320
WIRE 27184 -2080 25280 -2080
WIRE 28048 -2080 27184 -2080
WIRE 22752 -2032 22752 -3264
WIRE 22752 -2032 22144 -2032
WIRE 23600 -2032 23600 -3264
WIRE 23600 -2032 22752 -2032
WIRE 24448 -2032 24448 -3264
WIRE 24448 -2032 23600 -2032
WIRE 25296 -2032 25296 -3264
WIRE 25296 -2032 24448 -2032
WIRE 27232 -2032 27232 -4336
WIRE 27232 -2032 25296 -2032
WIRE 28048 -2032 27232 -2032
WIRE 22768 -1984 22768 -3232
WIRE 22768 -1984 22144 -1984
WIRE 23616 -1984 23616 -3232
WIRE 23616 -1984 22768 -1984
WIRE 24464 -1984 24464 -3232
WIRE 24464 -1984 23616 -1984
WIRE 25312 -1984 25312 -3232
WIRE 25312 -1984 24464 -1984
WIRE 27280 -1984 27280 -4352
WIRE 27280 -1984 25312 -1984
WIRE 28048 -1984 27280 -1984
WIRE 20176 -1936 20176 -7984
WIRE 21984 -1936 21984 -2688
WIRE 21984 -1936 20176 -1936
WIRE 28048 -1936 21984 -1936
WIRE 20432 -1888 20432 -3936
WIRE 26304 -1888 20432 -1888
WIRE 26512 -1888 26512 -2688
WIRE 28048 -1888 26512 -1888
WIRE 25536 -1840 22144 -1840
WIRE 26304 -1824 26304 -1888
WIRE 26576 -1824 26576 -3968
WIRE 26576 -1824 26304 -1824
WIRE 28048 -1824 26576 -1824
WIRE 20272 -1792 20272 -3984
WIRE 22368 -1792 22368 -2768
WIRE 22368 -1792 20272 -1792
WIRE 23216 -1792 23216 -2768
WIRE 23216 -1792 22368 -1792
WIRE 24064 -1792 24064 -2768
WIRE 24064 -1792 23216 -1792
WIRE 24912 -1792 24912 -2768
WIRE 24912 -1792 24064 -1792
WIRE 26272 -1792 24912 -1792
WIRE 27424 -1776 27424 -6368
WIRE 28048 -1776 27424 -1776
WIRE 20224 -1744 20224 -4016
WIRE 22352 -1744 22352 -2800
WIRE 22352 -1744 20224 -1744
WIRE 23200 -1744 23200 -2800
WIRE 23200 -1744 22352 -1744
WIRE 24048 -1744 24048 -2800
WIRE 24048 -1744 23200 -1744
WIRE 24896 -1744 24896 -2800
WIRE 24896 -1744 24048 -1744
WIRE 26256 -1744 24896 -1744
WIRE 26272 -1728 26272 -1792
WIRE 27472 -1728 27472 -3952
WIRE 27472 -1728 26272 -1728
WIRE 28048 -1728 27472 -1728
WIRE 20128 -1696 20128 -3888
WIRE 26224 -1696 20128 -1696
WIRE 26256 -1680 26256 -1744
WIRE 27520 -1680 27520 -3936
WIRE 27520 -1680 26256 -1680
WIRE 28048 -1680 27520 -1680
WIRE 20080 -1648 20080 -3920
WIRE 26192 -1648 20080 -1648
WIRE 26224 -1632 26224 -1696
WIRE 27568 -1632 27568 -8288
WIRE 27568 -1632 26224 -1632
WIRE 28048 -1632 27568 -1632
WIRE 20032 -1600 20032 -3952
WIRE 26160 -1600 20032 -1600
WIRE 26192 -1584 26192 -1648
WIRE 27616 -1584 27616 -8336
WIRE 27616 -1584 26192 -1584
WIRE 28048 -1584 27616 -1584
WIRE 19984 -1552 19984 -3856
WIRE 26128 -1552 19984 -1552
WIRE 26160 -1536 26160 -1600
WIRE 27664 -1536 27664 -8384
WIRE 27664 -1536 26160 -1536
WIRE 28048 -1536 27664 -1536
WIRE 19936 -1504 19936 -3872
WIRE 26096 -1504 19936 -1504
WIRE 26128 -1488 26128 -1552
WIRE 27712 -1488 27712 -8432
WIRE 27712 -1488 26128 -1488
WIRE 28048 -1488 27712 -1488
WIRE 26096 -1456 26096 -1504
WIRE 27760 -1456 27760 -8480
WIRE 27760 -1456 26096 -1456
WIRE 28048 -1456 27760 -1456
SYMBOL 74HCT\\74hct164 22528 -2880 R0
SYMATTR InstName U3
SYMBOL 74HCT\\74hct164 23376 -2880 R0
SYMATTR InstName U5
SYMBOL 74HCT\\74hct164 24224 -2880 R0
SYMATTR InstName U7
SYMBOL 74HCT\\74hct164 25072 -2880 R0
SYMATTR InstName U9
SYMBOL 74HCT\\74hct164 26384 -4112 R270
SYMATTR InstName U11
SYMBOL 74HCT\\74hct164 26384 -4960 R270
SYMATTR InstName U13
SYMBOL 74HCT\\74hct164 26384 -5808 R270
SYMATTR InstName U15
SYMBOL 74HCT\\74hct164 25088 -8000 R0
SYMATTR InstName U18
SYMBOL 74HCT\\74hct138 25104 -7360 R0
SYMATTR InstName U19
SYMBOL 74HCT\\74hct164 24240 -8000 R0
SYMATTR InstName U20
SYMBOL 74HCT\\74hct138 24256 -7360 R0
SYMATTR InstName U21
SYMBOL 74HCT\\74hct164 23392 -8000 R0
SYMATTR InstName U22
SYMBOL 74HCT\\74hct138 23408 -7360 R0
SYMATTR InstName U23
SYMBOL 74HCT\\74hct164 22544 -8000 R0
SYMATTR InstName U24
SYMBOL 74HCT\\74hct138 22560 -7360 R0
SYMATTR InstName U25
SYMBOL 74HCT\\74hct164 20416 -5824 R270
SYMATTR InstName U26
SYMBOL 74HCT\\74hct138 21056 -5840 R270
SYMATTR InstName U27
SYMBOL 74HCT\\74hct164 20416 -4128 R270
SYMATTR InstName U28
SYMBOL 74HCT\\74hct138 21056 -4144 R270
SYMATTR InstName U29
SYMBOL 74HCT\\74hct164 20416 -4976 R270
SYMATTR InstName U30
SYMBOL 74HCT\\74hct138 21056 -4992 R270
SYMATTR InstName U31
TEXT 22144 -2528 Left 2 ;IN (Female)
TEXT 22872 -2528 Left 2 ;OUT (Male)
TEXT 22816 -1960 Left 2 ;H_SIG_SOURCE
TEXT 22816 -1912 Left 2 ;V_SIG_SOURCE
TEXT 22440 -3656 Left 3 ;RX Sensor Board
TEXT 22872 -1864 Left 2 ;V_SIG_RET
TEXT 22928 -1768 Left 2 ;CLK
TEXT 22912 -1816 Left 2 ;RESET
TEXT 22152 -2704 Left 2 ;SIG_PASS
TEXT 22872 -2712 Left 2 ;SIG_PASS
TEXT 22944 -1720 Left 2 ;A0
TEXT 22944 -1672 Left 2 ;A1
TEXT 22944 -1624 Left 2 ;A2
TEXT 22936 -2344 Left 2 ;Rx0
TEXT 22936 -2296 Left 2 ;Rx1
TEXT 22936 -2248 Left 2 ;Rx2
TEXT 22936 -2200 Left 2 ;Rx3
TEXT 22936 -2152 Left 2 ;Rx4
TEXT 22936 -2104 Left 2 ;Rx5
TEXT 22936 -2056 Left 2 ;Rx6
TEXT 22936 -2008 Left 2 ;Rx7
TEXT 22920 -1576 Left 2 ;+3.3V
TEXT 22936 -1528 Left 2 ;GND
TEXT 22992 -2528 Left 2 ;IN (Female)
TEXT 23720 -2528 Left 2 ;OUT (Male)
TEXT 23664 -1960 Left 2 ;H_SIG_SOURCE
TEXT 23664 -1912 Left 2 ;V_SIG_SOURCE
TEXT 23288 -3656 Left 3 ;RX Sensor Board
TEXT 23720 -1864 Left 2 ;V_SIG_RET
TEXT 23776 -1768 Left 2 ;CLK
TEXT 23760 -1816 Left 2 ;RESET
TEXT 23000 -2704 Left 2 ;SIG_PASS
TEXT 23720 -2712 Left 2 ;SIG_PASS
TEXT 23792 -1720 Left 2 ;A0
TEXT 23792 -1672 Left 2 ;A1
TEXT 23792 -1624 Left 2 ;A2
TEXT 23784 -2344 Left 2 ;Rx0
TEXT 23784 -2296 Left 2 ;Rx1
TEXT 23784 -2248 Left 2 ;Rx2
TEXT 23784 -2200 Left 2 ;Rx3
TEXT 23784 -2152 Left 2 ;Rx4
TEXT 23784 -2104 Left 2 ;Rx5
TEXT 23784 -2056 Left 2 ;Rx6
TEXT 23784 -2008 Left 2 ;Rx7
TEXT 23768 -1576 Left 2 ;+3.3V
TEXT 23784 -1528 Left 2 ;GND
TEXT 23840 -2528 Left 2 ;IN (Female)
TEXT 24568 -2528 Left 2 ;OUT (Male)
TEXT 24512 -1960 Left 2 ;H_SIG_SOURCE
TEXT 24512 -1912 Left 2 ;V_SIG_SOURCE
TEXT 24136 -3656 Left 3 ;RX Sensor Board
TEXT 24568 -1864 Left 2 ;V_SIG_RET
TEXT 24624 -1768 Left 2 ;CLK
TEXT 24608 -1816 Left 2 ;RESET
TEXT 23848 -2704 Left 2 ;SIG_PASS
TEXT 24568 -2712 Left 2 ;SIG_PASS
TEXT 24640 -1720 Left 2 ;A0
TEXT 24640 -1672 Left 2 ;A1
TEXT 24640 -1624 Left 2 ;A2
TEXT 24632 -2344 Left 2 ;Rx0
TEXT 24632 -2296 Left 2 ;Rx1
TEXT 24632 -2248 Left 2 ;Rx2
TEXT 24632 -2200 Left 2 ;Rx3
TEXT 24632 -2152 Left 2 ;Rx4
TEXT 24632 -2104 Left 2 ;Rx5
TEXT 24632 -2056 Left 2 ;Rx6
TEXT 24632 -2008 Left 2 ;Rx7
TEXT 24616 -1576 Left 2 ;+3.3V
TEXT 24632 -1528 Left 2 ;GND
TEXT 24688 -2528 Left 2 ;IN (Female)
TEXT 25416 -2528 Left 2 ;OUT (Male)
TEXT 25360 -1960 Left 2 ;H_SIG_SOURCE
TEXT 25360 -1912 Left 2 ;V_SIG_SOURCE
TEXT 24984 -3656 Left 3 ;RX Sensor Board
TEXT 25416 -1864 Left 2 ;V_SIG_RET
TEXT 25472 -1768 Left 2 ;CLK
TEXT 25456 -1816 Left 2 ;RESET
TEXT 24696 -2704 Left 2 ;SIG_PASS
TEXT 25416 -2712 Left 2 ;SIG_PASS
TEXT 25488 -1720 Left 2 ;A0
TEXT 25488 -1672 Left 2 ;A1
TEXT 25488 -1624 Left 2 ;A2
TEXT 25480 -2344 Left 2 ;Rx0
TEXT 25480 -2296 Left 2 ;Rx1
TEXT 25480 -2248 Left 2 ;Rx2
TEXT 25480 -2200 Left 2 ;Rx3
TEXT 25480 -2152 Left 2 ;Rx4
TEXT 25480 -2104 Left 2 ;Rx5
TEXT 25480 -2056 Left 2 ;Rx6
TEXT 25480 -2008 Left 2 ;Rx7
TEXT 25464 -1576 Left 2 ;+3.3V
TEXT 25480 -1528 Left 2 ;GND
TEXT 26736 -3728 VLeft 2 ;IN (Female)
TEXT 26736 -4456 VLeft 2 ;OUT (Male)
TEXT 27304 -4400 VLeft 2 ;H_SIG_SOURCE
TEXT 27352 -4400 VLeft 2 ;V_SIG_SOURCE
TEXT 25608 -4024 VLeft 3 ;RX Sensor Board
TEXT 27400 -4456 VLeft 2 ;V_SIG_RET
TEXT 27496 -4512 VLeft 2 ;CLK
TEXT 27448 -4496 VLeft 2 ;RESET
TEXT 26560 -3736 VLeft 2 ;SIG_PASS
TEXT 26552 -4456 VLeft 2 ;SIG_PASS
TEXT 27544 -4528 VLeft 2 ;A0
TEXT 27592 -4528 VLeft 2 ;A1
TEXT 27640 -4528 VLeft 2 ;A2
TEXT 26920 -4520 VLeft 2 ;Rx0
TEXT 26968 -4520 VLeft 2 ;Rx1
TEXT 27016 -4520 VLeft 2 ;Rx2
TEXT 27064 -4520 VLeft 2 ;Rx3
TEXT 27112 -4520 VLeft 2 ;Rx4
TEXT 27160 -4520 VLeft 2 ;Rx5
TEXT 27208 -4520 VLeft 2 ;Rx6
TEXT 27256 -4520 VLeft 2 ;Rx7
TEXT 27688 -4504 VLeft 2 ;+3.3V
TEXT 27736 -4520 VLeft 2 ;GND
TEXT 26736 -4576 VLeft 2 ;IN (Female)
TEXT 26736 -5304 VLeft 2 ;OUT (Male)
TEXT 27304 -5248 VLeft 2 ;H_SIG_SOURCE
TEXT 27352 -5248 VLeft 2 ;V_SIG_SOURCE
TEXT 25608 -4872 VLeft 3 ;RX Sensor Board
TEXT 27400 -5304 VLeft 2 ;V_SIG_RET
TEXT 27496 -5360 VLeft 2 ;CLK
TEXT 27448 -5344 VLeft 2 ;RESET
TEXT 26560 -4584 VLeft 2 ;SIG_PASS
TEXT 26552 -5304 VLeft 2 ;SIG_PASS
TEXT 27544 -5376 VLeft 2 ;A0
TEXT 27592 -5376 VLeft 2 ;A1
TEXT 27640 -5376 VLeft 2 ;A2
TEXT 26920 -5368 VLeft 2 ;Rx0
TEXT 26968 -5368 VLeft 2 ;Rx1
TEXT 27016 -5368 VLeft 2 ;Rx2
TEXT 27064 -5368 VLeft 2 ;Rx3
TEXT 27112 -5368 VLeft 2 ;Rx4
TEXT 27160 -5368 VLeft 2 ;Rx5
TEXT 27208 -5368 VLeft 2 ;Rx6
TEXT 27256 -5368 VLeft 2 ;Rx7
TEXT 27688 -5352 VLeft 2 ;+3.3V
TEXT 27736 -5368 VLeft 2 ;GND
TEXT 26736 -5424 VLeft 2 ;IN (Female)
TEXT 26736 -6152 VLeft 2 ;OUT (Male)
TEXT 27304 -6096 VLeft 2 ;H_SIG_SOURCE
TEXT 27352 -6096 VLeft 2 ;V_SIG_SOURCE
TEXT 25608 -5720 VLeft 3 ;RX Sensor Board
TEXT 27400 -6152 VLeft 2 ;V_SIG_RET
TEXT 27496 -6208 VLeft 2 ;CLK
TEXT 27448 -6192 VLeft 2 ;RESET
TEXT 26560 -5432 VLeft 2 ;SIG_PASS
TEXT 26552 -6152 VLeft 2 ;SIG_PASS
TEXT 27544 -6224 VLeft 2 ;A0
TEXT 27592 -6224 VLeft 2 ;A1
TEXT 27640 -6224 VLeft 2 ;A2
TEXT 26920 -6216 VLeft 2 ;Rx0
TEXT 26968 -6216 VLeft 2 ;Rx1
TEXT 27016 -6216 VLeft 2 ;Rx2
TEXT 27064 -6216 VLeft 2 ;Rx3
TEXT 27112 -6216 VLeft 2 ;Rx4
TEXT 27160 -6216 VLeft 2 ;Rx5
TEXT 27208 -6216 VLeft 2 ;Rx6
TEXT 27256 -6216 VLeft 2 ;Rx7
TEXT 27688 -6200 VLeft 2 ;+3.3V
TEXT 27736 -6216 VLeft 2 ;GND
TEXT 25352 -8264 Left 2 ;H_SIG_SOURCE
TEXT 25480 -8216 Left 2 ;CLK
TEXT 25456 -8168 Left 2 ;RESET
TEXT 24704 -8000 Left 2 ;SIG_PASS
TEXT 25408 -8000 Left 2 ;SIG_PASS
TEXT 24992 -6312 Left 3 ;Tx Emitter Board
TEXT 25408 -7896 Left 2 ;IN (Female)
TEXT 24704 -7896 Left 2 ;OUT (Male)
TEXT 25496 -8312 Left 2 ;A0
TEXT 25496 -8360 Left 2 ;A1
TEXT 25496 -8408 Left 2 ;A2
TEXT 25464 -8456 Left 2 ;+3.3V
TEXT 25480 -8504 Left 2 ;GND
TEXT 24504 -8264 Left 2 ;H_SIG_SOURCE
TEXT 24632 -8216 Left 2 ;CLK
TEXT 24608 -8168 Left 2 ;RESET
TEXT 23856 -8000 Left 2 ;SIG_PASS
TEXT 24560 -8000 Left 2 ;SIG_PASS
TEXT 24144 -6312 Left 3 ;Tx Emitter Board
TEXT 24560 -7896 Left 2 ;IN (Female)
TEXT 23856 -7896 Left 2 ;OUT (Male)
TEXT 24648 -8312 Left 2 ;A0
TEXT 24648 -8360 Left 2 ;A1
TEXT 24648 -8408 Left 2 ;A2
TEXT 24616 -8456 Left 2 ;+3.3V
TEXT 24632 -8504 Left 2 ;GND
TEXT 23656 -8264 Left 2 ;H_SIG_SOURCE
TEXT 23784 -8216 Left 2 ;CLK
TEXT 23760 -8168 Left 2 ;RESET
TEXT 23008 -8000 Left 2 ;SIG_PASS
TEXT 23712 -8000 Left 2 ;SIG_PASS
TEXT 23296 -6312 Left 3 ;Tx Emitter Board
TEXT 23712 -7896 Left 2 ;IN (Female)
TEXT 23008 -7896 Left 2 ;OUT (Male)
TEXT 23800 -8312 Left 2 ;A0
TEXT 23800 -8360 Left 2 ;A1
TEXT 23800 -8408 Left 2 ;A2
TEXT 23768 -8456 Left 2 ;+3.3V
TEXT 23784 -8504 Left 2 ;GND
TEXT 22808 -8264 Left 2 ;H_SIG_SOURCE
TEXT 22936 -8216 Left 2 ;CLK
TEXT 22912 -8168 Left 2 ;RESET
TEXT 22160 -8000 Left 2 ;SIG_PASS
TEXT 22864 -8000 Left 2 ;SIG_PASS
TEXT 22448 -6312 Left 3 ;Tx Emitter Board
TEXT 22864 -7896 Left 2 ;IN (Female)
TEXT 22160 -7896 Left 2 ;OUT (Male)
TEXT 22952 -8312 Left 2 ;A0
TEXT 22952 -8360 Left 2 ;A1
TEXT 22952 -8408 Left 2 ;A2
TEXT 22920 -8456 Left 2 ;+3.3V
TEXT 22936 -8504 Left 2 ;GND
TEXT 20152 -6088 VLeft 2 ;H_SIG_SOURCE
TEXT 20200 -6216 VLeft 2 ;CLK
TEXT 20248 -6192 VLeft 2 ;RESET
TEXT 20416 -5440 VLeft 2 ;SIG_PASS
TEXT 20416 -6144 VLeft 2 ;SIG_PASS
TEXT 22104 -5728 VLeft 3 ;Tx Emitter Board
TEXT 20520 -6144 VLeft 2 ;IN (Female)
TEXT 20520 -5440 VLeft 2 ;OUT (Male)
TEXT 20104 -6232 VLeft 2 ;A0
TEXT 20056 -6232 VLeft 2 ;A1
TEXT 20008 -6232 VLeft 2 ;A2
TEXT 19960 -6200 VLeft 2 ;+3.3V
TEXT 19912 -6216 VLeft 2 ;GND
TEXT 20152 -4392 VLeft 2 ;H_SIG_SOURCE
TEXT 20200 -4520 VLeft 2 ;CLK
TEXT 20248 -4496 VLeft 2 ;RESET
TEXT 20416 -3744 VLeft 2 ;SIG_PASS
TEXT 20416 -4448 VLeft 2 ;SIG_PASS
TEXT 22104 -4032 VLeft 3 ;Tx Emitter Board
TEXT 20520 -4448 VLeft 2 ;IN (Female)
TEXT 20520 -3744 VLeft 2 ;OUT (Male)
TEXT 20104 -4536 VLeft 2 ;A0
TEXT 20056 -4536 VLeft 2 ;A1
TEXT 20008 -4536 VLeft 2 ;A2
TEXT 19960 -4504 VLeft 2 ;+3.3V
TEXT 19912 -4520 VLeft 2 ;GND
TEXT 20152 -5240 VLeft 2 ;H_SIG_SOURCE
TEXT 20200 -5368 VLeft 2 ;CLK
TEXT 20248 -5344 VLeft 2 ;RESET
TEXT 20416 -4592 VLeft 2 ;SIG_PASS
TEXT 20416 -5296 VLeft 2 ;SIG_PASS
TEXT 22104 -4880 VLeft 3 ;Tx Emitter Board
TEXT 20520 -5296 VLeft 2 ;IN (Female)
TEXT 20520 -4592 VLeft 2 ;OUT (Male)
TEXT 20104 -5384 VLeft 2 ;A0
TEXT 20056 -5384 VLeft 2 ;A1
TEXT 20008 -5384 VLeft 2 ;A2
TEXT 19960 -5352 VLeft 2 ;+3.3V
TEXT 19912 -5368 VLeft 2 ;GND
TEXT 27864 -1960 Left 2 ;H_SIG_SOURCE
TEXT 27864 -1856 Left 2 ;V_SIG_SOURCE
TEXT 27920 -1808 Left 2 ;V_SIG_RET
TEXT 27976 -1712 Left 2 ;CLK
TEXT 27960 -1760 Left 2 ;RESET
TEXT 27992 -1664 Left 2 ;A0
TEXT 27992 -1616 Left 2 ;A1
TEXT 27992 -1568 Left 2 ;A2
TEXT 27984 -2344 Left 2 ;Rx0
TEXT 27984 -2296 Left 2 ;Rx1
TEXT 27984 -2248 Left 2 ;Rx2
TEXT 27984 -2200 Left 2 ;Rx3
TEXT 27984 -2152 Left 2 ;Rx4
TEXT 27984 -2104 Left 2 ;Rx5
TEXT 27984 -2056 Left 2 ;Rx6
TEXT 27984 -2008 Left 2 ;Rx7
TEXT 27968 -1520 Left 2 ;+3.3V
TEXT 27984 -1472 Left 2 ;GND
TEXT 27920 -1912 Left 2 ;H_SIG_RET
TEXT 20896 -3656 Left 4 ;LT/Lower Corner Board
TEXT 20920 -6400 Left 4 ;LT/Upper Corner Board
TEXT 25832 -3656 Left 4 ;RT/Lower Corner Board
TEXT 26000 -6328 Left 4 ;RT/Upper Corner Board
TEXT 21952 -2736 Left 2 ;OUT (Male)
TEXT 20472 -3672 Left 2 ;IN (Female)
TEXT 25584 -2528 Left 2 ;IN (Female)
TEXT 26656 -3672 Left 2 ;OUT (Male)
TEXT 25584 -7896 Left 2 ;OUT (Male)
TEXT 26664 -6328 Left 2 ;IN (Female)
TEXT 21984 -7904 Left 2 ;IN (Female)
TEXT 20456 -6336 Left 2 ;OUT (Male)
TEXT 23264 -3352 Left 2 ;RX Sensor Array
TEXT 24112 -3352 Left 2 ;RX Sensor Array
TEXT 22416 -3352 Left 2 ;RX Sensor Array
TEXT 24960 -3352 Left 2 ;RX Sensor Array
TEXT 25928 -4176 VRight 2 ;RX Sensor Array
TEXT 25928 -5024 VRight 2 ;RX Sensor Array
TEXT 25928 -5872 VRight 2 ;RX Sensor Array
RECTANGLE Normal 27840 -1424 25536 -3728 2
RECTANGLE Normal 25536 -1424 24688 -3728 2
RECTANGLE Normal 24688 -1424 23840 -3728 2
RECTANGLE Normal 23840 -1424 22992 -3728 2
RECTANGLE Normal 22992 -1424 22144 -3728 2
RECTANGLE Normal 19840 -1424 22144 -3728 2
RECTANGLE Normal 19840 -4576 22144 -3728 2
RECTANGLE Normal 19840 -5424 22144 -4576 2
RECTANGLE Normal 19840 -6272 22144 -5424 2
RECTANGLE Normal 22144 -8608 19840 -6272 2
RECTANGLE Normal 22144 -8608 22992 -6272 2
RECTANGLE Normal 22992 -8608 23840 -6272 2
RECTANGLE Normal 24688 -8608 23840 -6272 2
RECTANGLE Normal 25536 -6272 24688 -8608 2
RECTANGLE Normal 25536 -4576 27840 -3728 2
RECTANGLE Normal 25536 -5424 27840 -4576 2
RECTANGLE Normal 25536 -6272 27840 -5424 2
RECTANGLE Normal 27840 -6272 25536 -8608 2
RECTANGLE Normal 23488 -3200 23216 -3488 2