Version 4
SHEET 1 34328 680
WIRE 31536 -8528 31392 -8528
WIRE 32240 -8528 31536 -8528
WIRE 31520 -8480 31392 -8480
WIRE 32240 -8480 31520 -8480
WIRE 31616 -8432 31392 -8432
WIRE 32240 -8432 31616 -8432
WIRE 31584 -8384 31392 -8384
WIRE 32240 -8384 31584 -8384
WIRE 31552 -8336 31392 -8336
WIRE 32240 -8336 31552 -8336
WIRE 33744 -8320 33552 -8320
WIRE 33952 -8320 33936 -8320
WIRE 32240 -8288 31392 -8288
WIRE 33744 -8288 33568 -8288
WIRE 33968 -8288 33936 -8288
WIRE 33744 -8256 33584 -8256
WIRE 33984 -8256 33936 -8256
WIRE 31680 -8240 31392 -8240
WIRE 32240 -8240 31680 -8240
WIRE 34000 -8224 33936 -8224
WIRE 31648 -8192 31392 -8192
WIRE 32240 -8192 31648 -8192
WIRE 34016 -8192 33936 -8192
WIRE 34032 -8160 33936 -8160
WIRE 33744 -8144 33600 -8144
WIRE 34048 -8128 33936 -8128
WIRE 33744 -8096 33616 -8096
WIRE 34064 -8096 33936 -8096
WIRE 31600 -8032 31392 -8032
WIRE 32240 -8032 31984 -8032
WIRE 31680 -7968 31680 -8240
WIRE 31648 -7936 31648 -8192
WIRE 31680 -7936 31648 -7936
WIRE 31600 -7856 31600 -8032
WIRE 31680 -7856 31680 -7872
WIRE 31680 -7856 31600 -7856
WIRE 31680 -7840 31680 -7856
WIRE 31984 -7776 31984 -8032
WIRE 31984 -7776 31904 -7776
WIRE 33712 -7664 33648 -7664
WIRE 33712 -7632 33664 -7632
WIRE 33712 -7568 33680 -7568
WIRE 33680 -7552 33680 -7568
WIRE 33680 -7552 33440 -7552
WIRE 34288 -7552 34128 -7552
WIRE 33680 -7536 33680 -7552
WIRE 33712 -7536 33680 -7536
WIRE 34128 -7472 34128 -7552
WIRE 34128 -7472 33936 -7472
WIRE 31552 -7344 31552 -8336
WIRE 31712 -7344 31552 -7344
WIRE 31584 -7312 31584 -8384
WIRE 31712 -7312 31584 -7312
WIRE 31616 -7280 31616 -8432
WIRE 31712 -7280 31616 -7280
WIRE 33952 -7184 33952 -8320
WIRE 33952 -7184 33440 -7184
WIRE 34288 -7184 33952 -7184
WIRE 31536 -7168 31536 -8528
WIRE 31712 -7168 31712 -7184
WIRE 31712 -7168 31536 -7168
WIRE 31712 -7152 31712 -7168
WIRE 33968 -7136 33968 -8288
WIRE 33968 -7136 33440 -7136
WIRE 34288 -7136 33968 -7136
WIRE 31520 -7120 31520 -8480
WIRE 31712 -7120 31520 -7120
WIRE 33984 -7088 33984 -8256
WIRE 33984 -7088 33440 -7088
WIRE 34288 -7088 33984 -7088
WIRE 34000 -7040 34000 -8224
WIRE 34000 -7040 33440 -7040
WIRE 34288 -7040 34000 -7040
WIRE 34016 -6992 34016 -8192
WIRE 34016 -6992 33440 -6992
WIRE 34288 -6992 34016 -6992
WIRE 34032 -6944 34032 -8160
WIRE 34032 -6944 33440 -6944
WIRE 34288 -6944 34032 -6944
WIRE 34048 -6896 34048 -8128
WIRE 34048 -6896 33440 -6896
WIRE 34288 -6896 34048 -6896
WIRE 34064 -6848 34064 -8096
WIRE 34064 -6848 33440 -6848
WIRE 34288 -6848 34064 -6848
WIRE 34288 -6800 33440 -6800
WIRE 34288 -6752 33440 -6752
WIRE 34288 -6704 33440 -6704
WIRE 33664 -6656 33664 -7632
WIRE 33664 -6656 33440 -6656
WIRE 34288 -6656 33664 -6656
WIRE 33648 -6608 33648 -7664
WIRE 33648 -6608 33440 -6608
WIRE 34288 -6608 33648 -6608
WIRE 33552 -6560 33552 -8320
WIRE 33552 -6560 33440 -6560
WIRE 34288 -6560 33552 -6560
WIRE 33568 -6512 33568 -8288
WIRE 33568 -6512 33440 -6512
WIRE 34288 -6512 33568 -6512
WIRE 33584 -6464 33584 -8256
WIRE 33584 -6464 33440 -6464
WIRE 34288 -6464 33584 -6464
WIRE 33616 -6416 33616 -8096
WIRE 33616 -6416 33440 -6416
WIRE 34288 -6416 33616 -6416
WIRE 33600 -6368 33600 -8144
WIRE 33600 -6368 33440 -6368
WIRE 34288 -6368 33600 -6368
SYMBOL 74HCT\\74hct164 31792 -8048 R0
SYMATTR InstName U1
SYMBOL 74HCT\\74hct164 33824 -7744 R0
SYMATTR InstName U33
SYMBOL 74HCT\\74hct138 33840 -8384 R0
SYMATTR InstName U17
SYMBOL 74HCT\\74hct138 31808 -7408 R0
SYMATTR InstName U2
TEXT 32056 -8312 Left 2 ;H_SIG_SOURCE
TEXT 32184 -8264 Left 2 ;CLK
TEXT 32160 -8216 Left 2 ;RESET
TEXT 31408 -8048 Left 2 ;SIG_PASS
TEXT 32112 -8048 Left 2 ;SIG_PASS
TEXT 33440 -7392 Left 2 ;IN (Female)
TEXT 34168 -7392 Left 2 ;OUT (Male)
TEXT 34112 -6824 Left 2 ;H_SIG_SOURCE
TEXT 34112 -6776 Left 2 ;V_SIG_SOURCE
TEXT 33736 -8520 Left 3 ;RX Sensor Board
TEXT 34168 -6728 Left 2 ;V_SIG_RET
TEXT 34224 -6632 Left 2 ;CLK
TEXT 34208 -6680 Left 2 ;RESET
TEXT 33448 -7568 Left 2 ;SIG_PASS
TEXT 34168 -7576 Left 2 ;SIG_PASS
TEXT 31696 -6360 Left 3 ;Tx Emitter Board
TEXT 32112 -7944 Left 2 ;IN (Female)
TEXT 31408 -7944 Left 2 ;OUT (Male)
TEXT 34240 -6584 Left 2 ;A0
TEXT 34240 -6536 Left 2 ;A1
TEXT 34240 -6488 Left 2 ;A2
TEXT 34232 -7208 Left 2 ;Rx0
TEXT 34232 -7160 Left 2 ;Rx1
TEXT 34232 -7112 Left 2 ;Rx2
TEXT 34232 -7064 Left 2 ;Rx3
TEXT 34232 -7016 Left 2 ;Rx4
TEXT 34232 -6968 Left 2 ;Rx5
TEXT 34232 -6920 Left 2 ;Rx6
TEXT 34232 -6872 Left 2 ;Rx7
TEXT 34216 -6440 Left 2 ;+3.3V
TEXT 34232 -6392 Left 2 ;GND
TEXT 32200 -8360 Left 2 ;A0
TEXT 32200 -8408 Left 2 ;A1
TEXT 32200 -8456 Left 2 ;A2
TEXT 32168 -8504 Left 2 ;+3.3V
TEXT 32184 -8552 Left 2 ;GND
RECTANGLE Normal 34288 -6320 33440 -8592 2
RECTANGLE Normal 32240 -6320 31392 -8592 2
