Version 4
SHEET 1 2508 1272
WIRE -13632 -7312 -17808 -7312
WIRE -13728 -7280 -17728 -7280
WIRE -13824 -7232 -17680 -7232
WIRE -17552 -7152 -18240 -7152
WIRE -17024 -7152 -17552 -7152
WIRE -16736 -7152 -17024 -7152
WIRE -16448 -7152 -16736 -7152
WIRE -16160 -7152 -16448 -7152
WIRE -15872 -7152 -16160 -7152
WIRE -15584 -7152 -15872 -7152
WIRE -15296 -7152 -15584 -7152
WIRE -15008 -7152 -15296 -7152
WIRE -13920 -7152 -13920 -7168
WIRE -13920 -7152 -15008 -7152
WIRE -13232 -7152 -13920 -7152
WIRE -12704 -7152 -13232 -7152
WIRE -12416 -7152 -12704 -7152
WIRE -12128 -7152 -12416 -7152
WIRE -11840 -7152 -12128 -7152
WIRE -11552 -7152 -11840 -7152
WIRE -11264 -7152 -11552 -7152
WIRE -10976 -7152 -11264 -7152
WIRE -10688 -7152 -10976 -7152
WIRE -10144 -7152 -10688 -7152
WIRE -17024 -7120 -17024 -7152
WIRE -16736 -7120 -16736 -7152
WIRE -16448 -7120 -16448 -7152
WIRE -16160 -7120 -16160 -7152
WIRE -15872 -7120 -15872 -7152
WIRE -15584 -7120 -15584 -7152
WIRE -15296 -7120 -15296 -7152
WIRE -15008 -7120 -15008 -7152
WIRE -12704 -7120 -12704 -7152
WIRE -12416 -7120 -12416 -7152
WIRE -12128 -7120 -12128 -7152
WIRE -11840 -7120 -11840 -7152
WIRE -11552 -7120 -11552 -7152
WIRE -11264 -7120 -11264 -7152
WIRE -10976 -7120 -10976 -7152
WIRE -10688 -7120 -10688 -7152
WIRE -17072 -7040 -17104 -7040
WIRE -16784 -7040 -16816 -7040
WIRE -16496 -7040 -16528 -7040
WIRE -16208 -7040 -16240 -7040
WIRE -15920 -7040 -15952 -7040
WIRE -15632 -7040 -15664 -7040
WIRE -15344 -7040 -15376 -7040
WIRE -15056 -7040 -15088 -7040
WIRE -12752 -7040 -12784 -7040
WIRE -12464 -7040 -12496 -7040
WIRE -12176 -7040 -12208 -7040
WIRE -11888 -7040 -11920 -7040
WIRE -11600 -7040 -11632 -7040
WIRE -11312 -7040 -11344 -7040
WIRE -11024 -7040 -11056 -7040
WIRE -10736 -7040 -10768 -7040
WIRE -17680 -6960 -17680 -7232
WIRE -17680 -6960 -18160 -6960
WIRE -17456 -6960 -17680 -6960
WIRE -17184 -6960 -17184 -7040
WIRE -17184 -6960 -17264 -6960
WIRE -13824 -6960 -13824 -7232
WIRE -13824 -6960 -13840 -6960
WIRE -13136 -6960 -13824 -6960
WIRE -12864 -6960 -12864 -7040
WIRE -12864 -6960 -12944 -6960
WIRE -17728 -6928 -17728 -7280
WIRE -17728 -6928 -18048 -6928
WIRE -17456 -6928 -17728 -6928
WIRE -17440 -6928 -17456 -6928
WIRE -16896 -6928 -16896 -7040
WIRE -16896 -6928 -17264 -6928
WIRE -13728 -6928 -13728 -7280
WIRE -13136 -6928 -13728 -6928
WIRE -13120 -6928 -13136 -6928
WIRE -12576 -6928 -12576 -7040
WIRE -12576 -6928 -12944 -6928
WIRE -17808 -6896 -17808 -7312
WIRE -17808 -6896 -17952 -6896
WIRE -17456 -6896 -17808 -6896
WIRE -16608 -6896 -16608 -7040
WIRE -16608 -6896 -17264 -6896
WIRE -13632 -6896 -13632 -7312
WIRE -13136 -6896 -13632 -6896
WIRE -12288 -6896 -12288 -7040
WIRE -12288 -6896 -12944 -6896
WIRE -16320 -6864 -16320 -7040
WIRE -16320 -6864 -17264 -6864
WIRE -12000 -6864 -12000 -7040
WIRE -12000 -6864 -12944 -6864
WIRE -16032 -6832 -16032 -7040
WIRE -16032 -6832 -17264 -6832
WIRE -11712 -6832 -11712 -7040
WIRE -11712 -6832 -12944 -6832
WIRE -17456 -6800 -17504 -6800
WIRE -15744 -6800 -15744 -7040
WIRE -15744 -6800 -17264 -6800
WIRE -13136 -6800 -13184 -6800
WIRE -11424 -6800 -11424 -7040
WIRE -11424 -6800 -12944 -6800
WIRE -17504 -6768 -17504 -6800
WIRE -17456 -6768 -17504 -6768
WIRE -15456 -6768 -15456 -7040
WIRE -15456 -6768 -17264 -6768
WIRE -13184 -6768 -13184 -6800
WIRE -13136 -6768 -13184 -6768
WIRE -11136 -6768 -11136 -7040
WIRE -11136 -6768 -12944 -6768
WIRE -17952 -6736 -17952 -6896
WIRE -17552 -6736 -17552 -7152
WIRE -17456 -6736 -17552 -6736
WIRE -15168 -6736 -15168 -7040
WIRE -15168 -6736 -17264 -6736
WIRE -13232 -6736 -13232 -7152
WIRE -13136 -6736 -13232 -6736
WIRE -10848 -6736 -10848 -7040
WIRE -10848 -6736 -12944 -6736
WIRE -18048 -6672 -18048 -6928
WIRE -18160 -6608 -18160 -6960
WIRE -15648 -6608 -16624 -6608
WIRE -15008 -6608 -15008 -7024
WIRE -15008 -6608 -15648 -6608
WIRE -14704 -6608 -15008 -6608
WIRE -11328 -6608 -12304 -6608
WIRE -10688 -6608 -10688 -7024
WIRE -10688 -6608 -11328 -6608
WIRE -10384 -6608 -10688 -6608
WIRE -15776 -6576 -16752 -6576
WIRE -15296 -6576 -15296 -7024
WIRE -15296 -6576 -15776 -6576
WIRE -14832 -6576 -15296 -6576
WIRE -11456 -6576 -12432 -6576
WIRE -10976 -6576 -10976 -7024
WIRE -10976 -6576 -11456 -6576
WIRE -10512 -6576 -10976 -6576
WIRE -15888 -6544 -16864 -6544
WIRE -15584 -6544 -15584 -7024
WIRE -15584 -6544 -15888 -6544
WIRE -14944 -6544 -15584 -6544
WIRE -11568 -6544 -12544 -6544
WIRE -11264 -6544 -11264 -7024
WIRE -11264 -6544 -11568 -6544
WIRE -10624 -6544 -11264 -6544
WIRE -16000 -6512 -16976 -6512
WIRE -15872 -6512 -15872 -7024
WIRE -15872 -6512 -16000 -6512
WIRE -15056 -6512 -15872 -6512
WIRE -11680 -6512 -12656 -6512
WIRE -11552 -6512 -11552 -7024
WIRE -11552 -6512 -11680 -6512
WIRE -10736 -6512 -11552 -6512
WIRE -18160 -6496 -18160 -6528
WIRE -18048 -6496 -18048 -6592
WIRE -18048 -6496 -18160 -6496
WIRE -18000 -6496 -18048 -6496
WIRE -17952 -6496 -17952 -6656
WIRE -17952 -6496 -18000 -6496
WIRE -17504 -6496 -17504 -6768
WIRE -17504 -6496 -17952 -6496
WIRE -13184 -6496 -13184 -6768
WIRE -13184 -6496 -13680 -6496
WIRE -16160 -6480 -16160 -7024
WIRE -16160 -6480 -17088 -6480
WIRE -16112 -6480 -16160 -6480
WIRE -15168 -6480 -16112 -6480
WIRE -11840 -6480 -11840 -7024
WIRE -11840 -6480 -12768 -6480
WIRE -11792 -6480 -11840 -6480
WIRE -10848 -6480 -11792 -6480
WIRE -18000 -6464 -18000 -6496
WIRE -13680 -6464 -13680 -6496
WIRE -16448 -6448 -16448 -7024
WIRE -16448 -6448 -17200 -6448
WIRE -16224 -6448 -16448 -6448
WIRE -15280 -6448 -16224 -6448
WIRE -12128 -6448 -12128 -7024
WIRE -12128 -6448 -12880 -6448
WIRE -11904 -6448 -12128 -6448
WIRE -10960 -6448 -11904 -6448
WIRE -16736 -6416 -16736 -7024
WIRE -16736 -6416 -17312 -6416
WIRE -16336 -6416 -16736 -6416
WIRE -15392 -6416 -16336 -6416
WIRE -12416 -6416 -12416 -7024
WIRE -12416 -6416 -12992 -6416
WIRE -12016 -6416 -12416 -6416
WIRE -11072 -6416 -12016 -6416
WIRE -17024 -6384 -17024 -7024
WIRE -17024 -6384 -17424 -6384
WIRE -16448 -6384 -17024 -6384
WIRE -15504 -6384 -16448 -6384
WIRE -12704 -6384 -12704 -7024
WIRE -12704 -6384 -13104 -6384
WIRE -12128 -6384 -12704 -6384
WIRE -11184 -6384 -12128 -6384
WIRE -17424 -6352 -17424 -6384
WIRE -17312 -6352 -17312 -6416
WIRE -17200 -6352 -17200 -6448
WIRE -17088 -6352 -17088 -6480
WIRE -16976 -6352 -16976 -6512
WIRE -16864 -6352 -16864 -6544
WIRE -16752 -6352 -16752 -6576
WIRE -16624 -6352 -16624 -6608
WIRE -16448 -6352 -16448 -6384
WIRE -16336 -6352 -16336 -6416
WIRE -16224 -6352 -16224 -6448
WIRE -16112 -6352 -16112 -6480
WIRE -16000 -6352 -16000 -6512
WIRE -15888 -6352 -15888 -6544
WIRE -15776 -6352 -15776 -6576
WIRE -15648 -6352 -15648 -6608
WIRE -15504 -6352 -15504 -6384
WIRE -15392 -6352 -15392 -6416
WIRE -15280 -6352 -15280 -6448
WIRE -15168 -6352 -15168 -6480
WIRE -15056 -6352 -15056 -6512
WIRE -14944 -6352 -14944 -6544
WIRE -14832 -6352 -14832 -6576
WIRE -14704 -6352 -14704 -6608
WIRE -13104 -6352 -13104 -6384
WIRE -12992 -6352 -12992 -6416
WIRE -12880 -6352 -12880 -6448
WIRE -12768 -6352 -12768 -6480
WIRE -12656 -6352 -12656 -6512
WIRE -12544 -6352 -12544 -6544
WIRE -12432 -6352 -12432 -6576
WIRE -12304 -6352 -12304 -6608
WIRE -12128 -6352 -12128 -6384
WIRE -12016 -6352 -12016 -6416
WIRE -11904 -6352 -11904 -6448
WIRE -11792 -6352 -11792 -6480
WIRE -11680 -6352 -11680 -6512
WIRE -11568 -6352 -11568 -6544
WIRE -11456 -6352 -11456 -6576
WIRE -11328 -6352 -11328 -6608
WIRE -11184 -6352 -11184 -6384
WIRE -11072 -6352 -11072 -6416
WIRE -10960 -6352 -10960 -6448
WIRE -10848 -6352 -10848 -6480
WIRE -10736 -6352 -10736 -6512
WIRE -10624 -6352 -10624 -6544
WIRE -10512 -6352 -10512 -6576
WIRE -10384 -6352 -10384 -6608
WIRE -10144 -6304 -10144 -7152
WIRE -17424 -6224 -17424 -6288
WIRE -17312 -6224 -17312 -6288
WIRE -17312 -6224 -17424 -6224
WIRE -17200 -6224 -17200 -6288
WIRE -17200 -6224 -17312 -6224
WIRE -17088 -6224 -17088 -6288
WIRE -17088 -6224 -17200 -6224
WIRE -16992 -6224 -17088 -6224
WIRE -16976 -6224 -16976 -6288
WIRE -16976 -6224 -16992 -6224
WIRE -16864 -6224 -16864 -6288
WIRE -16864 -6224 -16976 -6224
WIRE -16752 -6224 -16752 -6288
WIRE -16752 -6224 -16864 -6224
WIRE -16624 -6224 -16624 -6288
WIRE -16624 -6224 -16752 -6224
WIRE -16448 -6224 -16448 -6288
WIRE -16336 -6224 -16336 -6288
WIRE -16336 -6224 -16448 -6224
WIRE -16224 -6224 -16224 -6288
WIRE -16224 -6224 -16336 -6224
WIRE -16112 -6224 -16112 -6288
WIRE -16112 -6224 -16224 -6224
WIRE -16016 -6224 -16112 -6224
WIRE -16000 -6224 -16000 -6288
WIRE -16000 -6224 -16016 -6224
WIRE -15888 -6224 -15888 -6288
WIRE -15888 -6224 -16000 -6224
WIRE -15776 -6224 -15776 -6288
WIRE -15776 -6224 -15888 -6224
WIRE -15648 -6224 -15648 -6288
WIRE -15648 -6224 -15776 -6224
WIRE -15504 -6224 -15504 -6288
WIRE -15392 -6224 -15392 -6288
WIRE -15392 -6224 -15504 -6224
WIRE -15280 -6224 -15280 -6288
WIRE -15280 -6224 -15392 -6224
WIRE -15168 -6224 -15168 -6288
WIRE -15168 -6224 -15280 -6224
WIRE -15072 -6224 -15168 -6224
WIRE -15056 -6224 -15056 -6288
WIRE -15056 -6224 -15072 -6224
WIRE -14944 -6224 -14944 -6288
WIRE -14944 -6224 -15056 -6224
WIRE -14832 -6224 -14832 -6288
WIRE -14832 -6224 -14944 -6224
WIRE -14704 -6224 -14704 -6288
WIRE -14704 -6224 -14832 -6224
WIRE -13104 -6224 -13104 -6288
WIRE -12992 -6224 -12992 -6288
WIRE -12992 -6224 -13104 -6224
WIRE -12880 -6224 -12880 -6288
WIRE -12880 -6224 -12992 -6224
WIRE -12768 -6224 -12768 -6288
WIRE -12768 -6224 -12880 -6224
WIRE -12672 -6224 -12768 -6224
WIRE -12656 -6224 -12656 -6288
WIRE -12656 -6224 -12672 -6224
WIRE -12544 -6224 -12544 -6288
WIRE -12544 -6224 -12656 -6224
WIRE -12432 -6224 -12432 -6288
WIRE -12432 -6224 -12544 -6224
WIRE -12304 -6224 -12304 -6288
WIRE -12304 -6224 -12432 -6224
WIRE -12128 -6224 -12128 -6288
WIRE -12016 -6224 -12016 -6288
WIRE -12016 -6224 -12128 -6224
WIRE -11904 -6224 -11904 -6288
WIRE -11904 -6224 -12016 -6224
WIRE -11792 -6224 -11792 -6288
WIRE -11792 -6224 -11904 -6224
WIRE -11696 -6224 -11792 -6224
WIRE -11680 -6224 -11680 -6288
WIRE -11680 -6224 -11696 -6224
WIRE -11568 -6224 -11568 -6288
WIRE -11568 -6224 -11680 -6224
WIRE -11456 -6224 -11456 -6288
WIRE -11456 -6224 -11568 -6224
WIRE -11328 -6224 -11328 -6288
WIRE -11328 -6224 -11456 -6224
WIRE -11184 -6224 -11184 -6288
WIRE -11072 -6224 -11072 -6288
WIRE -11072 -6224 -11184 -6224
WIRE -10960 -6224 -10960 -6288
WIRE -10960 -6224 -11072 -6224
WIRE -10848 -6224 -10848 -6288
WIRE -10848 -6224 -10960 -6224
WIRE -10752 -6224 -10848 -6224
WIRE -10736 -6224 -10736 -6288
WIRE -10736 -6224 -10752 -6224
WIRE -10624 -6224 -10624 -6288
WIRE -10624 -6224 -10736 -6224
WIRE -10512 -6224 -10512 -6288
WIRE -10512 -6224 -10624 -6224
WIRE -10384 -6224 -10384 -6288
WIRE -10384 -6224 -10512 -6224
WIRE -16016 -6160 -16016 -6224
WIRE -15072 -6160 -15072 -6224
WIRE -11696 -6160 -11696 -6224
WIRE -10752 -6160 -10752 -6224
WIRE -10144 -6160 -10144 -6224
WIRE -16992 -6144 -16992 -6224
WIRE -12672 -6144 -12672 -6224
WIRE -17792 -6080 -18288 -6080
WIRE -13472 -6080 -13968 -6080
WIRE -18240 -6048 -18240 -7152
WIRE -17792 -6048 -18240 -6048
WIRE -13920 -6048 -13920 -7152
WIRE -13472 -6048 -13920 -6048
WIRE -18288 -6000 -18288 -6080
WIRE -16992 -6000 -16992 -6064
WIRE -16016 -6000 -16016 -6080
WIRE -15072 -6000 -15072 -6080
WIRE -13968 -6000 -13968 -6080
WIRE -12672 -6000 -12672 -6064
WIRE -11696 -6000 -11696 -6080
WIRE -10752 -6000 -10752 -6080
WIRE -17792 -5984 -17856 -5984
WIRE -13472 -5984 -13536 -5984
WIRE -17856 -5952 -17856 -5984
WIRE -17792 -5952 -17856 -5952
WIRE -17184 -5952 -17568 -5952
WIRE -17056 -5952 -17104 -5952
WIRE -16208 -5952 -16896 -5952
WIRE -16080 -5952 -16128 -5952
WIRE -15264 -5952 -15936 -5952
WIRE -15136 -5952 -15184 -5952
WIRE -13536 -5952 -13536 -5984
WIRE -13472 -5952 -13536 -5952
WIRE -12864 -5952 -13248 -5952
WIRE -12736 -5952 -12784 -5952
WIRE -11888 -5952 -12576 -5952
WIRE -11760 -5952 -11808 -5952
WIRE -10944 -5952 -11616 -5952
WIRE -10816 -5952 -10864 -5952
WIRE -18288 -5920 -18416 -5920
WIRE -17232 -5920 -17568 -5920
WIRE -13968 -5920 -14096 -5920
WIRE -12912 -5920 -13248 -5920
WIRE -18080 -5888 -18304 -5888
WIRE -17856 -5888 -17856 -5952
WIRE -17856 -5888 -18016 -5888
WIRE -17488 -5888 -17568 -5888
WIRE -17264 -5888 -17488 -5888
WIRE -12944 -5888 -13248 -5888
WIRE -18304 -5856 -18304 -5888
WIRE -16992 -5856 -16992 -5904
WIRE -16016 -5856 -16016 -5904
WIRE -15072 -5856 -15072 -5904
WIRE -12672 -5856 -12672 -5904
WIRE -11696 -5856 -11696 -5904
WIRE -10752 -5856 -10752 -5904
WIRE -17232 -5776 -17232 -5920
WIRE -16896 -5776 -16896 -5952
WIRE -16896 -5776 -17232 -5776
WIRE -12912 -5776 -12912 -5920
WIRE -12576 -5776 -12576 -5952
WIRE -12576 -5776 -12912 -5776
WIRE -18416 -5744 -18416 -5920
WIRE -18304 -5744 -18304 -5776
WIRE -18304 -5744 -18416 -5744
WIRE -17264 -5744 -17264 -5888
WIRE -15936 -5744 -15936 -5952
WIRE -15936 -5744 -17264 -5744
WIRE -14096 -5744 -14096 -5920
WIRE -13984 -5744 -13984 -5776
WIRE -13984 -5744 -14096 -5744
WIRE -12944 -5744 -12944 -5888
WIRE -12768 -5744 -12944 -5744
WIRE -11616 -5744 -11616 -5952
WIRE -11616 -5744 -12768 -5744
WIRE -18304 -5712 -18304 -5744
WIRE -13984 -5712 -13984 -5744
WIRE -17488 -5648 -17488 -5888
WIRE -13536 -5648 -13536 -5952
WIRE -13536 -5648 -17488 -5648
WIRE -17856 -5264 -17856 -5888
WIRE -12768 -5264 -12768 -5744
WIRE -12768 -5264 -17856 -5264
FLAG -16992 -5856 0
FLAG -16016 -5856 0
FLAG -15072 -5856 0
FLAG -18000 -6464 0
FLAG -18304 -5712 0
FLAG -12672 -5856 0
FLAG -11696 -5856 0
FLAG -10752 -5856 0
FLAG -10144 -6160 0
FLAG -13680 -6464 0
FLAG -13984 -5712 0
SYMBOL LED -17440 -6352 R0
SYMATTR InstName D1
SYMATTR Value QTLP690C
SYMATTR Description Diode
SYMATTR Type diode
SYMBOL pmos -17072 -7120 R0
SYMATTR InstName M1
SYMATTR Value BSS84
SYMBOL res -17088 -7056 R90
WINDOW 0 0 56 VBottom 2
WINDOW 3 32 56 VTop 2
SYMATTR InstName R1
SYMATTR Value 1k
SYMBOL pmos -16784 -7120 R0
SYMATTR InstName M2
SYMATTR Value BSS84
SYMBOL res -16800 -7056 R90
WINDOW 0 0 56 VBottom 2
WINDOW 3 32 56 VTop 2
SYMATTR InstName R2
SYMATTR Value 1k
SYMBOL pmos -16496 -7120 R0
SYMATTR InstName M3
SYMATTR Value BSS84
SYMBOL res -16512 -7056 R90
WINDOW 0 0 56 VBottom 2
WINDOW 3 32 56 VTop 2
SYMATTR InstName R3
SYMATTR Value 1k
SYMBOL pmos -16208 -7120 R0
SYMATTR InstName M4
SYMATTR Value BSS84
SYMBOL res -16224 -7056 R90
WINDOW 0 0 56 VBottom 2
WINDOW 3 32 56 VTop 2
SYMATTR InstName R4
SYMATTR Value 1k
SYMBOL pmos -15920 -7120 R0
SYMATTR InstName M5
SYMATTR Value BSS84
SYMBOL res -15936 -7056 R90
WINDOW 0 0 56 VBottom 2
WINDOW 3 32 56 VTop 2
SYMATTR InstName R5
SYMATTR Value 1k
SYMBOL pmos -15632 -7120 R0
SYMATTR InstName M6
SYMATTR Value BSS84
SYMBOL res -15648 -7056 R90
WINDOW 0 0 56 VBottom 2
WINDOW 3 32 56 VTop 2
SYMATTR InstName R6
SYMATTR Value 1k
SYMBOL pmos -15344 -7120 R0
SYMATTR InstName M7
SYMATTR Value BSS84
SYMBOL res -15360 -7056 R90
WINDOW 0 0 56 VBottom 2
WINDOW 3 32 56 VTop 2
SYMATTR InstName R7
SYMATTR Value 1k
SYMBOL pmos -15056 -7120 R0
SYMATTR InstName M8
SYMATTR Value BSS84
SYMBOL res -15072 -7056 R90
WINDOW 0 0 56 VBottom 2
WINDOW 3 32 56 VTop 2
SYMATTR InstName R8
SYMATTR Value 1k
SYMBOL 74HCT\\74hct138 -17360 -7024 R0
SYMATTR InstName U1
SYMBOL 74HCT\\74hct164 -17680 -6160 R0
SYMATTR InstName U2
SYMBOL npn -17056 -6000 R0
SYMATTR InstName Q1
SYMATTR Value 2N3904
SYMBOL res -17088 -5968 R90
WINDOW 0 0 56 VBottom 2
WINDOW 3 32 56 VTop 2
SYMATTR InstName R9
SYMATTR Value 1k
SYMBOL npn -16080 -6000 R0
SYMATTR InstName Q2
SYMATTR Value 2N3904
SYMBOL res -16112 -5968 R90
WINDOW 0 0 56 VBottom 2
WINDOW 3 32 56 VTop 2
SYMATTR InstName R10
SYMATTR Value 1k
SYMBOL npn -15136 -6000 R0
SYMATTR InstName Q3
SYMATTR Value 2N3904
SYMBOL res -15168 -5968 R90
WINDOW 0 0 56 VBottom 2
WINDOW 3 32 56 VTop 2
SYMATTR InstName R11
SYMATTR Value 1k
SYMBOL voltage -18160 -6624 R0
WINDOW 123 0 0 Left 2
WINDOW 39 0 0 Left 2
SYMATTR InstName V2
SYMATTR Value PULSE(0 5 1n 1n 1n 0.5m 1m 1000)
SYMBOL voltage -18048 -6688 R0
WINDOW 123 0 0 Left 2
WINDOW 39 0 0 Left 2
SYMATTR InstName V3
SYMATTR Value PULSE(0 5 1n 1n 1n 1m 2m 1000)
SYMBOL voltage -17952 -6752 R0
WINDOW 123 0 0 Left 2
WINDOW 39 0 0 Left 2
SYMATTR InstName V4
SYMATTR Value PULSE(0 5 1n 1n 1n 2m 4m 1000)
SYMBOL voltage -18304 -5872 R0
WINDOW 123 0 0 Left 2
WINDOW 39 0 0 Left 2
SYMATTR InstName V5
SYMATTR Value PULSE(0 5 1n 1n 1n 1m 2m 1)
SYMBOL voltage -18288 -6016 R0
WINDOW 123 0 0 Left 2
WINDOW 39 0 0 Left 2
SYMATTR InstName V6
SYMATTR Value PULSE(0 5 0.5m 1n 1n 1m 4m 10000)
SYMBOL diode -18080 -5872 R270
WINDOW 0 32 32 VTop 2
WINDOW 3 0 32 VBottom 2
SYMATTR InstName D25
SYMATTR Value 1N4001
SYMBOL LED -17328 -6352 R0
SYMATTR InstName D2
SYMATTR Value QTLP690C
SYMATTR Description Diode
SYMATTR Type diode
SYMBOL LED -17216 -6352 R0
SYMATTR InstName D3
SYMATTR Value QTLP690C
SYMATTR Description Diode
SYMATTR Type diode
SYMBOL LED -17104 -6352 R0
SYMATTR InstName D4
SYMATTR Value QTLP690C
SYMATTR Description Diode
SYMATTR Type diode
SYMBOL LED -16992 -6352 R0
SYMATTR InstName D5
SYMATTR Value QTLP690C
SYMATTR Description Diode
SYMATTR Type diode
SYMBOL LED -16880 -6352 R0
SYMATTR InstName D6
SYMATTR Value QTLP690C
SYMATTR Description Diode
SYMATTR Type diode
SYMBOL LED -16768 -6352 R0
SYMATTR InstName D7
SYMATTR Value QTLP690C
SYMATTR Description Diode
SYMATTR Type diode
SYMBOL LED -16640 -6352 R0
SYMATTR InstName D8
SYMATTR Value QTLP690C
SYMATTR Description Diode
SYMATTR Type diode
SYMBOL LED -16464 -6352 R0
SYMATTR InstName D9
SYMATTR Value QTLP690C
SYMATTR Description Diode
SYMATTR Type diode
SYMBOL LED -16352 -6352 R0
SYMATTR InstName D10
SYMATTR Value QTLP690C
SYMATTR Description Diode
SYMATTR Type diode
SYMBOL LED -16240 -6352 R0
SYMATTR InstName D11
SYMATTR Value QTLP690C
SYMATTR Description Diode
SYMATTR Type diode
SYMBOL LED -16128 -6352 R0
SYMATTR InstName D12
SYMATTR Value QTLP690C
SYMATTR Description Diode
SYMATTR Type diode
SYMBOL LED -16016 -6352 R0
SYMATTR InstName D13
SYMATTR Value QTLP690C
SYMATTR Description Diode
SYMATTR Type diode
SYMBOL LED -15904 -6352 R0
SYMATTR InstName D14
SYMATTR Value QTLP690C
SYMATTR Description Diode
SYMATTR Type diode
SYMBOL LED -15792 -6352 R0
SYMATTR InstName D15
SYMATTR Value QTLP690C
SYMATTR Description Diode
SYMATTR Type diode
SYMBOL LED -15664 -6352 R0
SYMATTR InstName D16
SYMATTR Value QTLP690C
SYMATTR Description Diode
SYMATTR Type diode
SYMBOL LED -15520 -6352 R0
SYMATTR InstName D17
SYMATTR Value QTLP690C
SYMATTR Description Diode
SYMATTR Type diode
SYMBOL LED -15408 -6352 R0
SYMATTR InstName D18
SYMATTR Value QTLP690C
SYMATTR Description Diode
SYMATTR Type diode
SYMBOL LED -15296 -6352 R0
SYMATTR InstName D19
SYMATTR Value QTLP690C
SYMATTR Description Diode
SYMATTR Type diode
SYMBOL LED -15184 -6352 R0
SYMATTR InstName D20
SYMATTR Value QTLP690C
SYMATTR Description Diode
SYMATTR Type diode
SYMBOL LED -15072 -6352 R0
SYMATTR InstName D21
SYMATTR Value QTLP690C
SYMATTR Description Diode
SYMATTR Type diode
SYMBOL LED -14960 -6352 R0
SYMATTR InstName D22
SYMATTR Value QTLP690C
SYMATTR Description Diode
SYMATTR Type diode
SYMBOL LED -14848 -6352 R0
SYMATTR InstName D23
SYMATTR Value QTLP690C
SYMATTR Description Diode
SYMATTR Type diode
SYMBOL LED -14720 -6352 R0
SYMATTR InstName D24
SYMATTR Value QTLP690C
SYMATTR Description Diode
SYMATTR Type diode
SYMBOL res -17008 -6160 R0
SYMATTR InstName R20
SYMATTR Value 33
SYMBOL res -16032 -6176 R0
SYMATTR InstName R21
SYMATTR Value 33
SYMBOL res -15088 -6176 R0
SYMATTR InstName R22
SYMATTR Value 33
SYMBOL LED -13120 -6352 R0
SYMATTR InstName D26
SYMATTR Value QTLP690C
SYMATTR Description Diode
SYMATTR Type diode
SYMBOL pmos -12752 -7120 R0
SYMATTR InstName M9
SYMATTR Value BSS84
SYMBOL res -12768 -7056 R90
WINDOW 0 0 56 VBottom 2
WINDOW 3 32 56 VTop 2
SYMATTR InstName R12
SYMATTR Value 1k
SYMBOL pmos -12464 -7120 R0
SYMATTR InstName M10
SYMATTR Value BSS84
SYMBOL res -12480 -7056 R90
WINDOW 0 0 56 VBottom 2
WINDOW 3 32 56 VTop 2
SYMATTR InstName R13
SYMATTR Value 1k
SYMBOL pmos -12176 -7120 R0
SYMATTR InstName M11
SYMATTR Value BSS84
SYMBOL res -12192 -7056 R90
WINDOW 0 0 56 VBottom 2
WINDOW 3 32 56 VTop 2
SYMATTR InstName R14
SYMATTR Value 1k
SYMBOL pmos -11888 -7120 R0
SYMATTR InstName M12
SYMATTR Value BSS84
SYMBOL res -11904 -7056 R90
WINDOW 0 0 56 VBottom 2
WINDOW 3 32 56 VTop 2
SYMATTR InstName R15
SYMATTR Value 1k
SYMBOL pmos -11600 -7120 R0
SYMATTR InstName M13
SYMATTR Value BSS84
SYMBOL res -11616 -7056 R90
WINDOW 0 0 56 VBottom 2
WINDOW 3 32 56 VTop 2
SYMATTR InstName R16
SYMATTR Value 1k
SYMBOL pmos -11312 -7120 R0
SYMATTR InstName M14
SYMATTR Value BSS84
SYMBOL res -11328 -7056 R90
WINDOW 0 0 56 VBottom 2
WINDOW 3 32 56 VTop 2
SYMATTR InstName R17
SYMATTR Value 1k
SYMBOL pmos -11024 -7120 R0
SYMATTR InstName M15
SYMATTR Value BSS84
SYMBOL res -11040 -7056 R90
WINDOW 0 0 56 VBottom 2
WINDOW 3 32 56 VTop 2
SYMATTR InstName R18
SYMATTR Value 1k
SYMBOL pmos -10736 -7120 R0
SYMATTR InstName M16
SYMATTR Value BSS84
SYMBOL res -10752 -7056 R90
WINDOW 0 0 56 VBottom 2
WINDOW 3 32 56 VTop 2
SYMATTR InstName R19
SYMATTR Value 1k
SYMBOL 74HCT\\74hct138 -13040 -7024 R0
SYMATTR InstName U3
SYMBOL 74HCT\\74hct164 -13360 -6160 R0
SYMATTR InstName U4
SYMBOL voltage -10144 -6320 R0
WINDOW 123 0 0 Left 2
WINDOW 39 0 0 Left 2
SYMATTR InstName V7
SYMATTR Value 5
SYMBOL npn -12736 -6000 R0
SYMATTR InstName Q4
SYMATTR Value 2N3904
SYMBOL res -12768 -5968 R90
WINDOW 0 0 56 VBottom 2
WINDOW 3 32 56 VTop 2
SYMATTR InstName R23
SYMATTR Value 1k
SYMBOL npn -11760 -6000 R0
SYMATTR InstName Q5
SYMATTR Value 2N3904
SYMBOL res -11792 -5968 R90
WINDOW 0 0 56 VBottom 2
WINDOW 3 32 56 VTop 2
SYMATTR InstName R24
SYMATTR Value 1k
SYMBOL npn -10816 -6000 R0
SYMATTR InstName Q6
SYMATTR Value 2N3904
SYMBOL res -10848 -5968 R90
WINDOW 0 0 56 VBottom 2
WINDOW 3 32 56 VTop 2
SYMATTR InstName R25
SYMATTR Value 1k
SYMBOL voltage -13968 -6016 R0
WINDOW 123 0 0 Left 2
WINDOW 39 0 0 Left 2
SYMATTR InstName V12
SYMATTR Value PULSE(0 5 0.5m 1n 1n 1m 4m 10000)
SYMBOL LED -13008 -6352 R0
SYMATTR InstName D28
SYMATTR Value QTLP690C
SYMATTR Description Diode
SYMATTR Type diode
SYMBOL LED -12896 -6352 R0
SYMATTR InstName D29
SYMATTR Value QTLP690C
SYMATTR Description Diode
SYMATTR Type diode
SYMBOL LED -12784 -6352 R0
SYMATTR InstName D30
SYMATTR Value QTLP690C
SYMATTR Description Diode
SYMATTR Type diode
SYMBOL LED -12672 -6352 R0
SYMATTR InstName D31
SYMATTR Value QTLP690C
SYMATTR Description Diode
SYMATTR Type diode
SYMBOL LED -12560 -6352 R0
SYMATTR InstName D32
SYMATTR Value QTLP690C
SYMATTR Description Diode
SYMATTR Type diode
SYMBOL LED -12448 -6352 R0
SYMATTR InstName D33
SYMATTR Value QTLP690C
SYMATTR Description Diode
SYMATTR Type diode
SYMBOL LED -12320 -6352 R0
SYMATTR InstName D34
SYMATTR Value QTLP690C
SYMATTR Description Diode
SYMATTR Type diode
SYMBOL LED -12144 -6352 R0
SYMATTR InstName D35
SYMATTR Value QTLP690C
SYMATTR Description Diode
SYMATTR Type diode
SYMBOL LED -12032 -6352 R0
SYMATTR InstName D36
SYMATTR Value QTLP690C
SYMATTR Description Diode
SYMATTR Type diode
SYMBOL LED -11920 -6352 R0
SYMATTR InstName D37
SYMATTR Value QTLP690C
SYMATTR Description Diode
SYMATTR Type diode
SYMBOL LED -11808 -6352 R0
SYMATTR InstName D38
SYMATTR Value QTLP690C
SYMATTR Description Diode
SYMATTR Type diode
SYMBOL LED -11696 -6352 R0
SYMATTR InstName D39
SYMATTR Value QTLP690C
SYMATTR Description Diode
SYMATTR Type diode
SYMBOL LED -11584 -6352 R0
SYMATTR InstName D40
SYMATTR Value QTLP690C
SYMATTR Description Diode
SYMATTR Type diode
SYMBOL LED -11472 -6352 R0
SYMATTR InstName D41
SYMATTR Value QTLP690C
SYMATTR Description Diode
SYMATTR Type diode
SYMBOL LED -11344 -6352 R0
SYMATTR InstName D42
SYMATTR Value QTLP690C
SYMATTR Description Diode
SYMATTR Type diode
SYMBOL LED -11200 -6352 R0
SYMATTR InstName D43
SYMATTR Value QTLP690C
SYMATTR Description Diode
SYMATTR Type diode
SYMBOL LED -11088 -6352 R0
SYMATTR InstName D44
SYMATTR Value QTLP690C
SYMATTR Description Diode
SYMATTR Type diode
SYMBOL LED -10976 -6352 R0
SYMATTR InstName D45
SYMATTR Value QTLP690C
SYMATTR Description Diode
SYMATTR Type diode
SYMBOL LED -10864 -6352 R0
SYMATTR InstName D46
SYMATTR Value QTLP690C
SYMATTR Description Diode
SYMATTR Type diode
SYMBOL LED -10752 -6352 R0
SYMATTR InstName D47
SYMATTR Value QTLP690C
SYMATTR Description Diode
SYMATTR Type diode
SYMBOL LED -10640 -6352 R0
SYMATTR InstName D48
SYMATTR Value QTLP690C
SYMATTR Description Diode
SYMATTR Type diode
SYMBOL LED -10528 -6352 R0
SYMATTR InstName D49
SYMATTR Value QTLP690C
SYMATTR Description Diode
SYMATTR Type diode
SYMBOL LED -10400 -6352 R0
SYMATTR InstName D50
SYMATTR Value QTLP690C
SYMATTR Description Diode
SYMATTR Type diode
SYMBOL res -12688 -6160 R0
SYMATTR InstName R26
SYMATTR Value 33
SYMBOL res -11712 -6176 R0
SYMATTR InstName R27
SYMATTR Value 33
SYMBOL res -10768 -6176 R0
SYMATTR InstName R28
SYMATTR Value 33
TEXT -16096 -5400 Left 2 !.model QED123 D(Ron=0.1n Roff=1G Vfwd=1.7 type=LED)
TEXT -16096 -5368 Left 2 !.inc 74HCT.lib
TEXT -18336 -5352 Left 2 !.tran 0 32m 0 startup
