Version 4
SHEET 1 2508 1272
WIRE -14048 -6720 -14736 -6720
WIRE -13520 -6720 -14048 -6720
WIRE -13232 -6720 -13520 -6720
WIRE -12944 -6720 -13232 -6720
WIRE -12656 -6720 -12944 -6720
WIRE -12368 -6720 -12656 -6720
WIRE -12080 -6720 -12368 -6720
WIRE -11792 -6720 -12080 -6720
WIRE -11504 -6720 -11792 -6720
WIRE -10960 -6720 -11504 -6720
WIRE -13520 -6688 -13520 -6720
WIRE -13232 -6688 -13232 -6720
WIRE -12944 -6688 -12944 -6720
WIRE -12656 -6688 -12656 -6720
WIRE -12368 -6688 -12368 -6720
WIRE -12080 -6688 -12080 -6720
WIRE -11792 -6688 -11792 -6720
WIRE -11504 -6688 -11504 -6720
WIRE -13568 -6608 -13600 -6608
WIRE -13280 -6608 -13312 -6608
WIRE -12992 -6608 -13024 -6608
WIRE -12704 -6608 -12736 -6608
WIRE -12416 -6608 -12448 -6608
WIRE -12128 -6608 -12160 -6608
WIRE -11840 -6608 -11872 -6608
WIRE -11552 -6608 -11584 -6608
WIRE -13952 -6528 -14656 -6528
WIRE -13680 -6528 -13680 -6608
WIRE -13680 -6528 -13760 -6528
WIRE -13952 -6496 -14544 -6496
WIRE -13936 -6496 -13952 -6496
WIRE -13392 -6496 -13392 -6608
WIRE -13392 -6496 -13760 -6496
WIRE -13952 -6464 -14448 -6464
WIRE -13104 -6464 -13104 -6608
WIRE -13104 -6464 -13760 -6464
WIRE -12816 -6432 -12816 -6608
WIRE -12816 -6432 -13760 -6432
WIRE -12528 -6400 -12528 -6608
WIRE -12528 -6400 -13760 -6400
WIRE -13952 -6368 -14000 -6368
WIRE -12240 -6368 -12240 -6608
WIRE -12240 -6368 -13760 -6368
WIRE -14000 -6336 -14000 -6368
WIRE -13952 -6336 -14000 -6336
WIRE -11952 -6336 -11952 -6608
WIRE -11952 -6336 -13760 -6336
WIRE -14448 -6304 -14448 -6464
WIRE -14048 -6304 -14048 -6720
WIRE -13952 -6304 -14048 -6304
WIRE -11664 -6304 -11664 -6608
WIRE -11664 -6304 -13760 -6304
WIRE -14544 -6240 -14544 -6496
WIRE -14656 -6176 -14656 -6528
WIRE -12144 -6176 -13120 -6176
WIRE -11504 -6176 -11504 -6592
WIRE -11504 -6176 -12144 -6176
WIRE -11200 -6176 -11504 -6176
WIRE -12272 -6144 -13248 -6144
WIRE -11792 -6144 -11792 -6592
WIRE -11792 -6144 -12272 -6144
WIRE -11328 -6144 -11792 -6144
WIRE -12384 -6112 -13360 -6112
WIRE -12080 -6112 -12080 -6592
WIRE -12080 -6112 -12384 -6112
WIRE -11440 -6112 -12080 -6112
WIRE -12496 -6080 -13472 -6080
WIRE -12368 -6080 -12368 -6592
WIRE -12368 -6080 -12496 -6080
WIRE -11552 -6080 -12368 -6080
WIRE -14656 -6064 -14656 -6096
WIRE -14544 -6064 -14544 -6160
WIRE -14544 -6064 -14656 -6064
WIRE -14496 -6064 -14544 -6064
WIRE -14448 -6064 -14448 -6224
WIRE -14448 -6064 -14496 -6064
WIRE -14000 -6064 -14000 -6336
WIRE -14000 -6064 -14448 -6064
WIRE -12656 -6048 -12656 -6592
WIRE -12656 -6048 -13584 -6048
WIRE -12608 -6048 -12656 -6048
WIRE -11664 -6048 -12608 -6048
WIRE -14496 -6032 -14496 -6064
WIRE -12944 -6016 -12944 -6592
WIRE -12944 -6016 -13696 -6016
WIRE -12720 -6016 -12944 -6016
WIRE -11776 -6016 -12720 -6016
WIRE -13232 -5984 -13232 -6592
WIRE -13232 -5984 -13808 -5984
WIRE -12832 -5984 -13232 -5984
WIRE -11888 -5984 -12832 -5984
WIRE -13520 -5952 -13520 -6592
WIRE -13520 -5952 -13920 -5952
WIRE -12944 -5952 -13520 -5952
WIRE -12000 -5952 -12944 -5952
WIRE -13920 -5920 -13920 -5952
WIRE -13808 -5920 -13808 -5984
WIRE -13696 -5920 -13696 -6016
WIRE -13584 -5920 -13584 -6048
WIRE -13472 -5920 -13472 -6080
WIRE -13360 -5920 -13360 -6112
WIRE -13248 -5920 -13248 -6144
WIRE -13120 -5920 -13120 -6176
WIRE -12944 -5920 -12944 -5952
WIRE -12832 -5920 -12832 -5984
WIRE -12720 -5920 -12720 -6016
WIRE -12608 -5920 -12608 -6048
WIRE -12496 -5920 -12496 -6080
WIRE -12384 -5920 -12384 -6112
WIRE -12272 -5920 -12272 -6144
WIRE -12144 -5920 -12144 -6176
WIRE -12000 -5920 -12000 -5952
WIRE -11888 -5920 -11888 -5984
WIRE -11776 -5920 -11776 -6016
WIRE -11664 -5920 -11664 -6048
WIRE -11552 -5920 -11552 -6080
WIRE -11440 -5920 -11440 -6112
WIRE -11328 -5920 -11328 -6144
WIRE -11200 -5920 -11200 -6176
WIRE -10960 -5872 -10960 -6720
WIRE -13920 -5792 -13920 -5856
WIRE -13808 -5792 -13808 -5856
WIRE -13808 -5792 -13920 -5792
WIRE -13696 -5792 -13696 -5856
WIRE -13696 -5792 -13808 -5792
WIRE -13584 -5792 -13584 -5856
WIRE -13584 -5792 -13696 -5792
WIRE -13488 -5792 -13584 -5792
WIRE -13472 -5792 -13472 -5856
WIRE -13472 -5792 -13488 -5792
WIRE -13360 -5792 -13360 -5856
WIRE -13360 -5792 -13472 -5792
WIRE -13248 -5792 -13248 -5856
WIRE -13248 -5792 -13360 -5792
WIRE -13120 -5792 -13120 -5856
WIRE -13120 -5792 -13248 -5792
WIRE -12944 -5792 -12944 -5856
WIRE -12832 -5792 -12832 -5856
WIRE -12832 -5792 -12944 -5792
WIRE -12720 -5792 -12720 -5856
WIRE -12720 -5792 -12832 -5792
WIRE -12608 -5792 -12608 -5856
WIRE -12608 -5792 -12720 -5792
WIRE -12512 -5792 -12608 -5792
WIRE -12496 -5792 -12496 -5856
WIRE -12496 -5792 -12512 -5792
WIRE -12384 -5792 -12384 -5856
WIRE -12384 -5792 -12496 -5792
WIRE -12272 -5792 -12272 -5856
WIRE -12272 -5792 -12384 -5792
WIRE -12144 -5792 -12144 -5856
WIRE -12144 -5792 -12272 -5792
WIRE -12000 -5792 -12000 -5856
WIRE -11888 -5792 -11888 -5856
WIRE -11888 -5792 -12000 -5792
WIRE -11776 -5792 -11776 -5856
WIRE -11776 -5792 -11888 -5792
WIRE -11664 -5792 -11664 -5856
WIRE -11664 -5792 -11776 -5792
WIRE -11568 -5792 -11664 -5792
WIRE -11552 -5792 -11552 -5856
WIRE -11552 -5792 -11568 -5792
WIRE -11440 -5792 -11440 -5856
WIRE -11440 -5792 -11552 -5792
WIRE -11328 -5792 -11328 -5856
WIRE -11328 -5792 -11440 -5792
WIRE -11200 -5792 -11200 -5856
WIRE -11200 -5792 -11328 -5792
WIRE -12512 -5728 -12512 -5792
WIRE -11568 -5728 -11568 -5792
WIRE -10960 -5728 -10960 -5792
WIRE -13488 -5712 -13488 -5792
WIRE -14288 -5648 -14784 -5648
WIRE -14736 -5616 -14736 -6720
WIRE -14288 -5616 -14736 -5616
WIRE -14784 -5568 -14784 -5648
WIRE -13488 -5568 -13488 -5632
WIRE -12512 -5568 -12512 -5648
WIRE -11568 -5568 -11568 -5648
WIRE -14288 -5552 -14352 -5552
WIRE -14352 -5520 -14352 -5552
WIRE -14288 -5520 -14352 -5520
WIRE -13680 -5520 -14064 -5520
WIRE -13552 -5520 -13600 -5520
WIRE -12704 -5520 -13392 -5520
WIRE -12576 -5520 -12624 -5520
WIRE -11760 -5520 -12432 -5520
WIRE -11632 -5520 -11680 -5520
WIRE -14784 -5488 -14912 -5488
WIRE -13728 -5488 -14064 -5488
WIRE -14576 -5456 -14800 -5456
WIRE -14352 -5456 -14352 -5520
WIRE -14352 -5456 -14512 -5456
WIRE -13984 -5456 -14064 -5456
WIRE -13760 -5456 -13984 -5456
WIRE -14800 -5424 -14800 -5456
WIRE -13488 -5424 -13488 -5472
WIRE -12512 -5424 -12512 -5472
WIRE -11568 -5424 -11568 -5472
WIRE -13728 -5344 -13728 -5488
WIRE -13392 -5344 -13392 -5520
WIRE -13392 -5344 -13728 -5344
WIRE -14912 -5312 -14912 -5488
WIRE -14800 -5312 -14800 -5344
WIRE -14800 -5312 -14912 -5312
WIRE -13760 -5312 -13760 -5456
WIRE -12432 -5312 -12432 -5520
WIRE -12432 -5312 -13760 -5312
WIRE -14800 -5280 -14800 -5312
WIRE -14352 -5216 -14352 -5456
WIRE -13984 -5216 -13984 -5456
WIRE -13984 -5216 -14352 -5216
FLAG -13488 -5424 0
FLAG -12512 -5424 0
FLAG -11568 -5424 0
FLAG -10960 -5728 0
FLAG -14496 -6032 0
FLAG -14800 -5280 0
SYMBOL LED -13936 -5920 R0
SYMATTR InstName D1
SYMATTR Value QTLP690C
SYMATTR Description Diode
SYMATTR Type diode
SYMBOL pmos -13568 -6688 R0
SYMATTR InstName M1
SYMATTR Value BSS84
SYMBOL res -13584 -6624 R90
WINDOW 0 0 56 VBottom 2
WINDOW 3 32 56 VTop 2
SYMATTR InstName R1
SYMATTR Value 1k
SYMBOL pmos -13280 -6688 R0
SYMATTR InstName M2
SYMATTR Value BSS84
SYMBOL res -13296 -6624 R90
WINDOW 0 0 56 VBottom 2
WINDOW 3 32 56 VTop 2
SYMATTR InstName R2
SYMATTR Value 1k
SYMBOL pmos -12992 -6688 R0
SYMATTR InstName M3
SYMATTR Value BSS84
SYMBOL res -13008 -6624 R90
WINDOW 0 0 56 VBottom 2
WINDOW 3 32 56 VTop 2
SYMATTR InstName R3
SYMATTR Value 1k
SYMBOL pmos -12704 -6688 R0
SYMATTR InstName M4
SYMATTR Value BSS84
SYMBOL res -12720 -6624 R90
WINDOW 0 0 56 VBottom 2
WINDOW 3 32 56 VTop 2
SYMATTR InstName R4
SYMATTR Value 1k
SYMBOL pmos -12416 -6688 R0
SYMATTR InstName M5
SYMATTR Value BSS84
SYMBOL res -12432 -6624 R90
WINDOW 0 0 56 VBottom 2
WINDOW 3 32 56 VTop 2
SYMATTR InstName R5
SYMATTR Value 1k
SYMBOL pmos -12128 -6688 R0
SYMATTR InstName M6
SYMATTR Value BSS84
SYMBOL res -12144 -6624 R90
WINDOW 0 0 56 VBottom 2
WINDOW 3 32 56 VTop 2
SYMATTR InstName R6
SYMATTR Value 1k
SYMBOL pmos -11840 -6688 R0
SYMATTR InstName M7
SYMATTR Value BSS84
SYMBOL res -11856 -6624 R90
WINDOW 0 0 56 VBottom 2
WINDOW 3 32 56 VTop 2
SYMATTR InstName R7
SYMATTR Value 1k
SYMBOL pmos -11552 -6688 R0
SYMATTR InstName M8
SYMATTR Value BSS84
SYMBOL res -11568 -6624 R90
WINDOW 0 0 56 VBottom 2
WINDOW 3 32 56 VTop 2
SYMATTR InstName R8
SYMATTR Value 1k
SYMBOL 74HCT\\74hct138 -13856 -6592 R0
SYMATTR InstName U1
SYMBOL 74HCT\\74hct164 -14176 -5728 R0
SYMATTR InstName U2
SYMBOL voltage -10960 -5888 R0
WINDOW 123 0 0 Left 2
WINDOW 39 0 0 Left 2
SYMATTR InstName V1
SYMATTR Value 5
SYMBOL npn -13552 -5568 R0
SYMATTR InstName Q1
SYMATTR Value 2N3904
SYMBOL res -13584 -5536 R90
WINDOW 0 0 56 VBottom 2
WINDOW 3 32 56 VTop 2
SYMATTR InstName R9
SYMATTR Value 1k
SYMBOL npn -12576 -5568 R0
SYMATTR InstName Q2
SYMATTR Value 2N3904
SYMBOL res -12608 -5536 R90
WINDOW 0 0 56 VBottom 2
WINDOW 3 32 56 VTop 2
SYMATTR InstName R10
SYMATTR Value 1k
SYMBOL npn -11632 -5568 R0
SYMATTR InstName Q3
SYMATTR Value 2N3904
SYMBOL res -11664 -5536 R90
WINDOW 0 0 56 VBottom 2
WINDOW 3 32 56 VTop 2
SYMATTR InstName R11
SYMATTR Value 1k
SYMBOL voltage -14656 -6192 R0
WINDOW 123 0 0 Left 2
WINDOW 39 0 0 Left 2
SYMATTR InstName V2
SYMATTR Value PULSE(0 5 1n 1n 1n 0.5m 1m 1000)
SYMBOL voltage -14544 -6256 R0
WINDOW 123 0 0 Left 2
WINDOW 39 0 0 Left 2
SYMATTR InstName V3
SYMATTR Value PULSE(0 5 1n 1n 1n 1m 2m 1000)
SYMBOL voltage -14448 -6320 R0
WINDOW 123 0 0 Left 2
WINDOW 39 0 0 Left 2
SYMATTR InstName V4
SYMATTR Value PULSE(0 5 1n 1n 1n 2m 4m 1000)
SYMBOL voltage -14800 -5440 R0
WINDOW 123 0 0 Left 2
WINDOW 39 0 0 Left 2
SYMATTR InstName V5
SYMATTR Value PULSE(0 5 1n 1n 1n 1m 2m 1)
SYMBOL voltage -14784 -5584 R0
WINDOW 123 0 0 Left 2
WINDOW 39 0 0 Left 2
SYMATTR InstName V6
SYMATTR Value PULSE(0 5 0.5m 1n 1n 1m 4m 10000)
SYMBOL diode -14576 -5440 R270
WINDOW 0 32 32 VTop 2
WINDOW 3 0 32 VBottom 2
SYMATTR InstName D25
SYMATTR Value 1N4001
SYMBOL LED -13824 -5920 R0
SYMATTR InstName D2
SYMATTR Value QTLP690C
SYMATTR Description Diode
SYMATTR Type diode
SYMBOL LED -13712 -5920 R0
SYMATTR InstName D3
SYMATTR Value QTLP690C
SYMATTR Description Diode
SYMATTR Type diode
SYMBOL LED -13600 -5920 R0
SYMATTR InstName D4
SYMATTR Value QTLP690C
SYMATTR Description Diode
SYMATTR Type diode
SYMBOL LED -13488 -5920 R0
SYMATTR InstName D5
SYMATTR Value QTLP690C
SYMATTR Description Diode
SYMATTR Type diode
SYMBOL LED -13376 -5920 R0
SYMATTR InstName D6
SYMATTR Value QTLP690C
SYMATTR Description Diode
SYMATTR Type diode
SYMBOL LED -13264 -5920 R0
SYMATTR InstName D7
SYMATTR Value QTLP690C
SYMATTR Description Diode
SYMATTR Type diode
SYMBOL LED -13136 -5920 R0
SYMATTR InstName D8
SYMATTR Value QTLP690C
SYMATTR Description Diode
SYMATTR Type diode
SYMBOL LED -12960 -5920 R0
SYMATTR InstName D9
SYMATTR Value QTLP690C
SYMATTR Description Diode
SYMATTR Type diode
SYMBOL LED -12848 -5920 R0
SYMATTR InstName D10
SYMATTR Value QTLP690C
SYMATTR Description Diode
SYMATTR Type diode
SYMBOL LED -12736 -5920 R0
SYMATTR InstName D11
SYMATTR Value QTLP690C
SYMATTR Description Diode
SYMATTR Type diode
SYMBOL LED -12624 -5920 R0
SYMATTR InstName D12
SYMATTR Value QTLP690C
SYMATTR Description Diode
SYMATTR Type diode
SYMBOL LED -12512 -5920 R0
SYMATTR InstName D13
SYMATTR Value QTLP690C
SYMATTR Description Diode
SYMATTR Type diode
SYMBOL LED -12400 -5920 R0
SYMATTR InstName D14
SYMATTR Value QTLP690C
SYMATTR Description Diode
SYMATTR Type diode
SYMBOL LED -12288 -5920 R0
SYMATTR InstName D15
SYMATTR Value QTLP690C
SYMATTR Description Diode
SYMATTR Type diode
SYMBOL LED -12160 -5920 R0
SYMATTR InstName D16
SYMATTR Value QTLP690C
SYMATTR Description Diode
SYMATTR Type diode
SYMBOL LED -12016 -5920 R0
SYMATTR InstName D17
SYMATTR Value QTLP690C
SYMATTR Description Diode
SYMATTR Type diode
SYMBOL LED -11904 -5920 R0
SYMATTR InstName D18
SYMATTR Value QTLP690C
SYMATTR Description Diode
SYMATTR Type diode
SYMBOL LED -11792 -5920 R0
SYMATTR InstName D19
SYMATTR Value QTLP690C
SYMATTR Description Diode
SYMATTR Type diode
SYMBOL LED -11680 -5920 R0
SYMATTR InstName D20
SYMATTR Value QTLP690C
SYMATTR Description Diode
SYMATTR Type diode
SYMBOL LED -11568 -5920 R0
SYMATTR InstName D21
SYMATTR Value QTLP690C
SYMATTR Description Diode
SYMATTR Type diode
SYMBOL LED -11456 -5920 R0
SYMATTR InstName D22
SYMATTR Value QTLP690C
SYMATTR Description Diode
SYMATTR Type diode
SYMBOL LED -11344 -5920 R0
SYMATTR InstName D23
SYMATTR Value QTLP690C
SYMATTR Description Diode
SYMATTR Type diode
SYMBOL LED -11216 -5920 R0
SYMATTR InstName D24
SYMATTR Value QTLP690C
SYMATTR Description Diode
SYMATTR Type diode
SYMBOL res -13504 -5728 R0
SYMATTR InstName R20
SYMATTR Value 33
SYMBOL res -12528 -5744 R0
SYMATTR InstName R21
SYMATTR Value 33
SYMBOL res -11584 -5744 R0
SYMATTR InstName R22
SYMATTR Value 33
TEXT -12592 -4968 Left 2 !.model QED123 D(Ron=0.1n Roff=1G Vfwd=1.7 type=LED)
TEXT -12592 -4936 Left 2 !.inc 74HCT.lib
TEXT -14832 -4920 Left 2 !.tran 0 32m 0 startup
